1FPU
 OpenBabel03172317123D

 29 32  0  0  1  0  0  0  0  0999 V2000
   11.5650   61.4970   12.5110 C   0  0  0  0  0  0  0  0  0  0  0  0
   10.5330   60.9290   11.7370 C   0  0  0  0  0  0  0  0  0  0  0  0
   10.6150   59.6390   11.3340 N   0  0  0  0  0  0  0  0  0  0  0  0
   11.6740   58.8450   11.6480 C   0  0  0  0  0  0  0  0  0  0  0  0
   12.7470   59.3530   12.4240 C   0  0  0  0  0  0  0  0  0  0  0  0
   12.6820   60.6950   12.8550 C   0  0  0  0  0  0  0  0  0  0  0  0
   13.8570   58.4850   12.7390 C   0  0  1  0  0  0  0  0  0  0  0  0
   13.7950   57.1810   12.3360 N   0  0  0  0  0  0  0  0  0  0  0  0
   14.7570   56.2910   12.5640 C   0  0  0  0  0  0  0  0  0  0  0  0
   15.8770   56.7040   13.2410 N   0  0  0  0  0  0  0  0  0  0  0  0
   16.0220   57.9800   13.6790 C   0  0  0  0  0  0  0  0  0  0  0  0
   15.0010   58.9140   13.4350 C   0  0  0  0  0  0  0  0  0  0  0  0
   14.6570   55.0130   12.1520 N   0  0  0  0  0  0  0  0  0  0  0  0
   15.6960   54.0830   12.2510 C   0  0  0  0  0  0  0  0  0  0  0  0
   15.6490   53.1620   13.3500 C   0  0  0  0  0  0  0  0  0  0  0  0
   16.6800   52.1840   13.5080 C   0  0  0  0  0  0  0  0  0  0  0  0
   17.6990   52.1450   12.5780 C   0  0  0  0  0  0  0  0  0  0  0  0
   17.7480   53.0460   11.5040 C   0  0  0  0  0  0  0  0  0  0  0  0
   16.7390   54.0180   11.3140 C   0  0  0  0  0  0  0  0  0  0  0  0
   16.9120   54.9120   10.1050 C   0  0  0  0  0  0  0  0  0  0  0  0
   16.6610   51.2280   14.5380 N   0  0  0  0  0  0  0  0  0  0  0  0
   15.7950   51.0650   15.5350 C   0  0  0  0  0  0  0  0  0  0  0  0
   15.9660   49.9190   16.4300 C   0  0  0  0  0  0  0  0  0  0  0  0
   14.8210   49.2730   16.9840 C   0  0  0  0  0  0  0  0  0  0  0  0
   14.9740   48.1550   17.8360 C   0  0  0  0  0  0  0  0  0  0  0  0
   16.2820   47.6880   18.1210 C   0  0  0  0  0  0  0  0  0  0  0  0
   17.3630   48.3250   17.5740 N   0  0  0  0  0  0  0  0  0  0  0  0
   17.2360   49.4110   16.7490 C   0  0  0  0  0  0  0  0  0  0  0  0
   14.8230   51.7860   15.7350 O   0  0  0  0  0  0  0  0  0  0  0  0
  1  6  1  0  0  0  0
  2  1  2  0  0  0  0
  3  4  2  0  0  0  0
  3  2  1  0  0  0  0
  4  5  1  0  0  0  0
  5  6  2  0  0  0  0
  7  5  1  6  0  0  0
  7 12  1  0  0  0  0
  8  9  2  0  0  0  0
  8  7  1  0  0  0  0
  9 10  2  0  0  0  0
 10 11  1  0  0  0  0
 12 11  2  0  0  0  0
 13 14  1  0  0  0  0
 13  9  1  0  0  0  0
 14 15  2  0  0  0  0
 15 16  1  0  0  0  0
 16 21  1  0  0  0  0
 17 16  2  0  0  0  0
 18 17  1  0  0  0  0
 19 18  2  0  0  0  0
 19 14  1  0  0  0  0
 20 19  1  0  0  0  0
 21 22  1  0  0  0  0
 22 29  2  0  0  0  0
 22 23  1  0  0  0  0
 23 28  2  0  0  0  0
 23 24  1  0  0  0  0
 24 25  2  0  0  0  0
 25 26  1  0  0  0  0
 27 26  2  0  0  0  0
 28 27  1  0  0  0  0
M  END
$$$$
1IEP
 OpenBabel03172317123D

 41 41  0  0  0  0  0  0  0  0999 V2000
   13.5270   34.7360    1.5330 Cl  0  0  0  0  0  0  0  0  0  0  0  0
   17.4000   41.4700   23.7980 Cl  0  0  0  0  0  0  0  0  0  0  0  0
    3.4010   58.6040    9.3280 Cl  0  0  0  0  0  0  0  0  0  0  0  0
   11.9910   63.9850   15.2390 Cl  0  0  0  0  0  0  0  0  0  0  0  0
   11.5560   61.5640   12.6810 C   0  0  0  0  0  0  0  0  0  0  0  0
   12.6640   60.7000   13.0190 C   0  0  0  0  0  0  0  0  0  0  0  0
   12.7410   59.3450   12.4880 C   0  0  0  0  0  0  0  0  0  0  0  0
   11.6720   58.8900   11.6110 C   0  0  0  0  0  0  0  0  0  0  0  0
   10.6170   59.7440   11.3040 N   0  0  0  0  0  0  0  0  0  0  0  0
   10.5320   61.0500   11.8100 C   0  0  0  0  0  0  0  0  0  0  0  0
   13.8660   58.4090   12.8060 C   0  0  0  0  0  0  0  0  0  0  0  0
   15.0630   58.8080   13.4870 C   0  0  0  0  0  0  0  0  0  0  0  0
   16.0420   57.8150   13.7160 C   0  0  0  0  0  0  0  0  0  0  0  0
   15.8280   56.5220   13.2890 N   0  0  0  0  0  0  0  0  0  0  0  0
   14.6610   56.1700   12.6370 C   0  0  0  0  0  0  0  0  0  0  0  0
   13.7100   57.1000   12.4080 N   0  0  0  0  0  0  0  0  0  0  0  0
   14.4280   54.8780   12.1920 N   0  0  0  0  0  0  0  0  0  0  0  0
   15.3820   53.8750   12.3820 C   0  0  0  0  0  0  0  0  0  0  0  0
   16.5120   53.7270   11.4580 C   0  0  0  0  0  0  0  0  0  0  0  0
   17.4600   52.6790   11.7080 C   0  0  0  0  0  0  0  0  0  0  0  0
   17.2990   51.7970   12.8370 C   0  0  0  0  0  0  0  0  0  0  0  0
   16.2000   51.9350   13.7350 C   0  0  0  0  0  0  0  0  0  0  0  0
   15.2380   52.9980   13.4870 C   0  0  0  0  0  0  0  0  0  0  0  0
   16.1020   51.0090   14.8360 N   0  0  0  0  0  0  0  0  0  0  0  0
   15.1250   50.9520   15.8160 C   0  0  0  0  0  0  0  0  0  0  0  0
   15.0670   49.7550   16.7090 C   0  0  0  0  0  0  0  0  0  0  0  0
   13.8860   49.4760   17.5300 C   0  0  0  0  0  0  0  0  0  0  0  0
   13.8640   48.3240   18.3960 C   0  0  0  0  0  0  0  0  0  0  0  0
   15.0270   47.4410   18.4450 C   0  0  0  0  0  0  0  0  0  0  0  0
   16.1830   47.7390   17.6160 C   0  0  0  0  0  0  0  0  0  0  0  0
   16.2090   48.8680   16.7660 C   0  0  0  0  0  0  0  0  0  0  0  0
   15.0990   46.2010   19.3550 C   0  0  0  0  0  0  0  0  0  0  0  0
   16.3130   46.0520   20.2120 N   0  0  0  0  0  0  0  0  0  0  0  0
   16.5070   47.2740   21.0750 C   0  0  0  0  0  0  0  0  0  0  0  0
   17.7790   47.1470   21.9600 C   0  0  0  0  0  0  0  0  0  0  0  0
   17.7170   45.8920   22.8200 N   0  0  0  0  0  0  0  0  0  0  0  0
   18.8940   45.7270   23.6840 C   0  0  0  0  0  0  0  0  0  0  0  0
   17.5370   44.6420   21.9580 C   0  0  0  0  0  0  0  0  0  0  0  0
   16.2490   44.7950   21.0850 C   0  0  0  0  0  0  0  0  0  0  0  0
   14.2970   51.8280   16.0180 O   0  0  0  0  0  0  0  0  0  0  0  0
   16.7310   54.6390   10.2290 C   0  0  0  0  0  0  0  0  0  0  0  0
  5  6  1  0  0  0  0
  7 11  1  0  0  0  0
  7  6  2  0  0  0  0
  8  7  1  0  0  0  0
  9  8  2  0  0  0  0
  9 10  1  0  0  0  0
 10  5  2  0  0  0  0
 11 12  2  0  0  0  0
 12 13  1  0  0  0  0
 14 13  1  0  0  0  0
 15 14  2  0  0  0  0
 16 15  2  0  0  0  0
 16 11  1  0  0  0  0
 17 18  1  0  0  0  0
 17 15  1  0  0  0  0
 18 23  2  0  0  0  0
 19 20  2  0  0  0  0
 19 18  1  0  0  0  0
 20 21  1  0  0  0  0
 21 22  2  0  0  0  0
 22 24  1  0  0  0  0
 23 22  1  0  0  0  0
 24 25  1  0  0  0  0
 25 40  2  0  0  0  0
 25 26  1  0  0  0  0
 26 31  2  0  0  0  0
 26 27  1  0  0  0  0
 27 28  2  0  0  0  0
 28 29  1  0  0  0  0
 29 32  1  0  0  0  0
 30 29  2  0  0  0  0
 31 30  1  0  0  0  0
 32 33  1  0  0  0  0
 33 34  1  0  0  0  0
 33 39  1  0  0  0  0
 34 35  1  0  0  0  0
 35 36  1  0  0  0  0
 36 37  1  0  0  0  0
 38 36  1  0  0  0  0
 39 38  1  0  0  0  0
 41 19  1  0  0  0  0
M  END
$$$$
ligands/2E2B.pdb
 OpenBabel03172317123D

 42 46  0  0  1  0  0  0  0  0999 V2000
   15.4530   49.9000   16.6350 C   0  0  0  0  0  0  0  0  0  0  0  0
   16.5740   49.0340   16.8400 C   0  0  0  0  0  0  0  0  0  0  0  0
   16.4680   47.9110   17.6880 C   0  0  0  0  0  0  0  0  0  0  0  0
   15.2230   47.6050   18.3840 C   0  0  0  0  0  0  0  0  0  0  0  0
   14.0580   48.4980   18.1780 C   0  0  0  0  0  0  0  0  0  0  0  0
   14.2250   49.6050   17.3110 C   0  0  0  0  0  0  0  0  0  0  0  0
   12.6480   48.3210   18.8500 C   0  0  0  0  0  0  0  0  0  0  0  0
   12.7690   48.4660   20.1980 F   0  0  0  0  0  0  0  0  0  0  0  0
   12.1360   47.0920   18.5840 F   0  0  0  0  0  0  0  0  0  0  0  0
   11.7530   49.2860   18.4610 F   0  0  0  0  0  0  0  0  0  0  0  0
   15.2440   46.3390   19.2950 C   0  0  0  0  0  0  0  0  0  0  0  0
   16.5110   45.9400   19.9670 N   0  0  0  0  0  0  0  0  0  0  0  0
   16.5130   44.6090   20.6050 C   0  0  0  0  0  0  0  0  0  0  0  0
   17.0260   44.8550   22.0280 C   0  0  0  0  0  0  0  0  0  0  0  0
   17.9310   46.0880   21.7920 C   0  0  1  0  0  0  0  0  0  0  0  0
   16.9770   46.9260   20.9790 C   0  0  0  0  0  0  0  0  0  0  0  0
   18.4730   46.7870   23.0420 N   0  0  0  0  0  0  0  0  0  0  0  0
   19.3930   45.9950   23.8860 C   0  0  0  0  0  0  0  0  0  0  0  0
   19.0930   48.1080   22.6620 C   0  0  0  0  0  0  0  0  0  0  0  0
   11.2880   61.4160   12.3520 N   0  0  0  0  0  0  0  0  0  0  0  0
   10.3660   60.7870   11.6010 C   0  0  0  0  0  0  0  0  0  0  0  0
   10.4110   59.5140   11.1870 N   0  0  0  0  0  0  0  0  0  0  0  0
   11.4900   58.7750   11.5590 C   0  0  0  0  0  0  0  0  0  0  0  0
   12.6000   59.3050   12.3840 C   0  0  0  0  0  0  0  0  0  0  0  0
   12.3760   60.7130   12.7380 C   0  0  0  0  0  0  0  0  0  0  0  0
   13.7000   58.5200   12.7530 C   0  0  0  0  0  0  0  0  0  0  0  0
   13.7480   57.2090   12.3360 N   0  0  0  0  0  0  0  0  0  0  0  0
   14.7720   56.4360   12.6630 C   0  0  0  0  0  0  0  0  0  0  0  0
   15.8220   56.8200   13.3760 N   0  0  0  0  0  0  0  0  0  0  0  0
   15.8660   58.1150   13.8410 C   0  0  0  0  0  0  0  0  0  0  0  0
   14.8260   59.0420   13.5630 C   0  0  0  0  0  0  0  0  0  0  0  0
   14.7060   55.1350   12.1820 N   0  0  0  0  0  0  0  0  0  0  0  0
   15.4710   53.2450   13.4420 C   0  0  0  0  0  0  0  0  0  0  0  0
   16.4130   52.1660   13.6650 C   0  0  0  0  0  0  0  0  0  0  0  0
   17.4950   51.9970   12.7700 C   0  0  0  0  0  0  0  0  0  0  0  0
   17.6560   52.8830   11.6540 C   0  0  0  0  0  0  0  0  0  0  0  0
   16.7210   53.9450   11.4410 C   0  0  0  0  0  0  0  0  0  0  0  0
   15.6370   54.1070   12.3450 C   0  0  0  0  0  0  0  0  0  0  0  0
   16.9840   54.8330   10.2270 C   0  0  0  0  0  0  0  0  0  0  0  0
   16.3170   51.2420   14.7640 N   0  0  0  0  0  0  0  0  0  0  0  0
   15.4500   51.1180   15.7700 C   0  0  0  0  0  0  0  0  0  0  0  0
   14.6440   52.0150   16.0200 O   0  0  0  0  0  0  0  0  0  0  0  0
  1  2  2  0  0  0  0
  1  6  1  0  0  0  0
  2  3  1  0  0  0  0
  3  4  2  0  0  0  0
  4 11  1  0  0  0  0
  5  4  1  0  0  0  0
  5  7  1  0  0  0  0
  6  5  2  0  0  0  0
  7  8  1  0  0  0  0
  9  7  1  0  0  0  0
 10  7  1  0  0  0  0
 11 12  1  0  0  0  0
 12 13  1  0  0  0  0
 12 16  1  0  0  0  0
 13 14  1  0  0  0  0
 15 14  1  0  0  0  0
 15 17  1  1  0  0  0
 16 15  1  0  0  0  0
 17 18  1  0  0  0  0
 19 17  1  0  0  0  0
 20 25  1  0  0  0  0
 21 20  2  0  0  0  0
 22 23  2  0  0  0  0
 22 21  1  0  0  0  0
 23 24  1  0  0  0  0
 24 25  2  0  0  0  0
 24 26  1  0  0  0  0
 26 31  2  0  0  0  0
 27 28  2  0  0  0  0
 27 26  1  0  0  0  0
 28 29  2  0  0  0  0
 29 30  1  0  0  0  0
 31 30  1  0  0  0  0
 32 38  1  0  0  0  0
 32 28  1  0  0  0  0
 33 34  1  0  0  0  0
 34 40  1  0  0  0  0
 35 34  2  0  0  0  0
 36 35  1  0  0  0  0
 37 36  2  0  0  0  0
 37 38  1  0  0  0  0
 38 33  2  0  0  0  0
 39 37  1  0  0  0  0
 40 41  1  0  0  0  0
 41 42  2  0  0  0  0
 41  1  1  0  0  0  0
M  END
$$$$
2G2H
 OpenBabel03172317123D

 27 30  0  0  1  0  0  0  0  0999 V2000
    9.5560   67.4890   10.5750 O   0  0  0  0  0  0  0  0  0  0  0  0
    8.8880   66.5530   11.3700 C   0  0  0  0  0  0  0  0  0  0  0  0
    9.7880   65.4380   11.8930 C   0  0  0  0  0  0  0  0  0  0  0  0
   10.8640   65.7380   12.8150 C   0  0  0  0  0  0  0  0  0  0  0  0
   11.7010   64.6960   13.3050 C   0  0  0  0  0  0  0  0  0  0  0  0
   11.4960   63.3440   12.9000 C   0  0  0  0  0  0  0  0  0  0  0  0
   10.4270   63.0160   11.9770 C   0  0  0  0  0  0  0  0  0  0  0  0
   10.1400   61.6910   11.5030 N   0  0  0  0  0  0  0  0  0  0  0  0
   10.9030   60.5420   11.6190 C   0  0  0  0  0  0  0  0  0  0  0  0
   10.3510   59.4050   11.0230 N   0  0  0  0  0  0  0  0  0  0  0  0
   11.0740   58.2570   11.0950 C   0  0  0  0  0  0  0  0  0  0  0  0
   12.3530   58.1760   11.7520 C   0  0  0  0  0  0  0  0  0  0  0  0
   13.1520   56.9610   11.8280 C   0  0  0  0  0  0  0  0  0  0  0  0
   14.3710   56.9520   12.4670 C   0  0  0  0  0  0  0  0  0  0  0  0
   14.9110   58.2110   13.1070 C   0  0  0  0  0  0  0  0  0  0  0  0
   15.9850   58.2970   13.6940 O   0  0  0  0  0  0  0  0  0  0  0  0
   14.0860   59.4200   13.0140 N   0  0  0  0  0  0  0  0  0  0  0  0
   12.8410   59.4160   12.3490 C   0  0  2  0  0  0  0  0  0  0  0  0
   12.1030   60.5620   12.2680 N   0  0  0  0  0  0  0  0  0  0  0  0
   14.5730   60.6950   13.6270 C   0  0  0  0  0  0  0  0  0  0  0  0
   15.2220   55.7270   12.5440 C   0  0  0  0  0  0  0  0  0  0  0  0
   15.0970   54.7510   13.6090 C   0  0  0  0  0  0  0  0  0  0  0  0
   15.9420   53.5940   13.6400 C   0  0  0  0  0  0  0  0  0  0  0  0
   16.9200   53.3840   12.6270 C   0  0  0  0  0  0  0  0  0  0  0  0
   17.0710   54.3140   11.5660 C   0  0  0  0  0  0  0  0  0  0  0  0
   16.2330   55.4720   11.5240 C   0  0  0  0  0  0  0  0  0  0  0  0
    9.5780   64.0800   11.4780 C   0  0  0  0  0  0  0  0  0  0  0  0
  1  2  1  0  0  0  0
  2  3  1  0  0  0  0
  3  4  1  0  0  0  0
  4  5  2  0  0  0  0
  6  5  1  0  0  0  0
  7  6  2  0  0  0  0
  8  9  1  0  0  0  0
  8  7  1  0  0  0  0
  9 19  2  0  0  0  0
 10 11  1  0  0  0  0
 10  9  2  0  0  0  0
 11 12  2  0  0  0  0
 12 13  1  0  0  0  0
 13 14  2  0  0  0  0
 14 21  1  0  0  0  0
 14 15  1  0  0  0  0
 15 16  2  0  0  0  0
 17 15  1  0  0  0  0
 17 20  1  0  0  0  0
 18 12  1  1  0  0  0
 18 17  1  0  0  0  0
 19 18  1  0  0  0  0
 21 22  2  0  0  0  0
 22 23  1  0  0  0  0
 24 23  2  0  0  0  0
 25 24  1  0  0  0  0
 26 25  2  0  0  0  0
 26 21  1  0  0  0  0
 27  3  2  0  0  0  0
 27  7  1  0  0  0  0
M  END
$$$$
2HIW
 OpenBabel03172317123D

 29 27  0  0  0  0  0  0  0  0999 V2000
   16.6390   56.5740   13.7100 O   0  0  0  0  0  0  0  0  0  0  0  0
   15.4890   56.6910   13.2370 C   0  0  0  0  0  0  0  0  0  0  0  0
   15.2910   59.0900   13.9250 C   0  0  0  0  0  0  0  0  0  0  0  0
   13.4090   57.9840   12.7020 C   0  0  0  0  0  0  0  0  0  0  0  0
   12.6500   59.0940   12.7010 N   0  0  0  0  0  0  0  0  0  0  0  0
   11.4260   59.0640   12.1290 C   0  0  0  0  0  0  0  0  0  0  0  0
   10.9230   57.9420   11.5390 N   0  0  0  0  0  0  0  0  0  0  0  0
   11.6390   56.8030   11.5170 C   0  0  0  0  0  0  0  0  0  0  0  0
   12.8960   56.8380   12.1070 C   0  0  0  0  0  0  0  0  0  0  0  0
   13.7880   55.9640   12.2440 C   0  0  0  0  0  0  0  0  0  0  0  0
   15.6300   54.4110   12.5680 C   0  0  0  0  0  0  0  0  0  0  0  0
   16.4540   54.1640   11.4710 C   0  0  0  0  0  0  0  0  0  0  0  0
   16.5790   55.1800   10.3620 C   0  0  0  0  0  0  0  0  0  0  0  0
   17.1620   52.9640   11.3940 C   0  0  0  0  0  0  0  0  0  0  0  0
   17.0480   52.0320   12.4200 C   0  0  0  0  0  0  0  0  0  0  0  0
   15.5220   53.4850   13.5950 C   0  0  0  0  0  0  0  0  0  0  0  0
   16.2240   52.2840   13.5190 C   0  0  0  0  0  0  0  0  0  0  0  0
   15.3900   51.4400   15.6170 C   0  0  0  0  0  0  0  0  0  0  0  0
   14.6960   52.4100   15.8740 O   0  0  0  0  0  0  0  0  0  0  0  0
   15.4420   50.2590   16.5630 C   0  0  0  0  0  0  0  0  0  0  0  0
   14.3060   49.8360   17.2670 C   0  0  0  0  0  0  0  0  0  0  0  0
   16.6470   49.5700   16.7160 C   0  0  0  0  0  0  0  0  0  0  0  0
   16.7280   48.4760   17.5690 C   0  0  0  0  0  0  0  0  0  0  0  0
   15.5930   48.0670   18.2690 C   0  0  0  0  0  0  0  0  0  0  0  0
   14.3780   48.7380   18.1320 C   0  0  0  0  0  0  0  0  0  0  0  0
   13.1620   48.2700   18.9060 C   0  0  0  0  0  0  0  0  0  0  0  0
   12.7300   49.2590   19.6650 F   0  0  0  0  0  0  0  0  0  0  0  0
   13.4800   47.2600   19.7080 F   0  0  0  0  0  0  0  0  0  0  0  0
   12.1920   47.8920   18.0700 F   0  0  0  0  0  0  0  0  0  0  0  0
  2  1  2  0  0  0  0
  5  4  1  0  0  0  0
  6  5  2  0  0  0  0
  7  6  1  0  0  0  0
  8  7  2  0  0  0  0
  8  9  1  0  0  0  0
  9 10  1  0  0  0  0
  9  4  2  0  0  0  0
 11 16  2  0  0  0  0
 12 11  1  0  0  0  0
 13 12  1  0  0  0  0
 14 12  2  0  0  0  0
 14 15  1  0  0  0  0
 15 17  2  0  0  0  0
 17 16  1  0  0  0  0
 18 19  2  0  0  0  0
 18 20  1  0  0  0  0
 20 22  2  0  0  0  0
 20 21  1  0  0  0  0
 21 25  2  0  0  0  0
 22 23  1  0  0  0  0
 23 24  2  0  0  0  0
 25 24  1  0  0  0  0
 25 26  1  0  0  0  0
 26 27  1  0  0  0  0
 26 28  1  0  0  0  0
 29 26  1  0  0  0  0
M  END
$$$$
2HYY
 OpenBabel03172317123D

 37 41  0  0  1  0  0  0  0  0999 V2000
   11.5700   61.6120   12.4500 C   0  0  0  0  0  0  0  0  0  0  0  0
   12.5930   60.7540   12.8650 C   0  0  0  0  0  0  0  0  0  0  0  0
   12.6720   59.4110   12.4070 C   0  0  0  0  0  0  0  0  0  0  0  0
   11.6590   58.9750   11.5480 C   0  0  0  0  0  0  0  0  0  0  0  0
   10.6510   59.7910   11.1510 N   0  0  0  0  0  0  0  0  0  0  0  0
   10.6260   61.0490   11.5980 C   0  0  0  0  0  0  0  0  0  0  0  0
   13.7920   58.4520   12.8170 C   0  0  2  0  0  0  0  0  0  0  0  0
   14.9060   58.8600   13.4350 C   0  0  0  0  0  0  0  0  0  0  0  0
   15.8740   57.8850   13.7370 C   0  0  0  0  0  0  0  0  0  0  0  0
   15.6690   56.6100   13.4130 N   0  0  0  0  0  0  0  0  0  0  0  0
   14.5570   56.2350   12.8040 C   0  0  0  0  0  0  0  0  0  0  0  0
   13.6080   57.1320   12.4830 N   0  0  0  0  0  0  0  0  0  0  0  0
   14.2490   54.9270   12.4510 N   0  0  0  0  0  0  0  0  0  0  0  0
   15.2290   53.9750   12.5520 C   0  0  0  0  0  0  0  0  0  0  0  0
   16.2650   53.8920   11.5980 C   0  0  0  0  0  0  0  0  0  0  0  0
   17.2090   52.8950   11.7840 C   0  0  0  0  0  0  0  0  0  0  0  0
   17.1430   51.9860   12.8840 C   0  0  0  0  0  0  0  0  0  0  0  0
   16.1280   52.0670   13.8060 C   0  0  0  0  0  0  0  0  0  0  0  0
   15.1560   53.0620   13.6220 C   0  0  0  0  0  0  0  0  0  0  0  0
   16.1910   51.0900   14.8460 N   0  0  0  0  0  0  0  0  0  0  0  0
   15.2080   50.9910   15.7690 C   0  0  0  0  0  0  0  0  0  0  0  0
   15.2000   49.7940   16.6500 C   0  0  0  0  0  0  0  0  0  0  0  0
   13.9870   49.4150   17.2910 C   0  0  0  0  0  0  0  0  0  0  0  0
   13.8970   48.2820   18.1700 C   0  0  0  0  0  0  0  0  0  0  0  0
   15.0570   47.5160   18.3920 C   0  0  0  0  0  0  0  0  0  0  0  0
   16.2780   47.8830   17.7570 C   0  0  0  0  0  0  0  0  0  0  0  0
   16.3810   49.0160   16.8870 C   0  0  0  0  0  0  0  0  0  0  0  0
   14.9630   46.3520   19.3070 C   0  0  0  0  0  0  0  0  0  0  0  0
   16.1010   46.2460   20.2010 N   0  0  0  0  0  0  0  0  0  0  0  0
   16.2480   47.4520   21.0340 C   0  0  0  0  0  0  0  0  0  0  0  0
   17.5250   47.3380   21.9500 C   0  0  0  0  0  0  0  0  0  0  0  0
   17.5110   45.9910   22.6240 N   0  0  0  0  0  0  0  0  0  0  0  0
   18.6880   45.9270   23.4510 C   0  0  0  0  0  0  0  0  0  0  0  0
   17.4170   44.8280   21.7580 C   0  0  0  0  0  0  0  0  0  0  0  0
   16.1070   44.9530   20.9400 C   0  0  0  0  0  0  0  0  0  0  0  0
   14.3150   51.8230   15.9290 O   0  0  0  0  0  0  0  0  0  0  0  0
   16.4010   54.8120   10.4080 C   0  0  0  0  0  0  0  0  0  0  0  0
  1  2  1  0  0  0  0
  3  2  2  0  0  0  0
  4  3  1  0  0  0  0
  5  4  2  0  0  0  0
  5  6  1  0  0  0  0
  6  1  2  0  0  0  0
  7  3  1  6  0  0  0
  7  8  1  0  0  0  0
  8  9  2  0  0  0  0
 10  9  1  0  0  0  0
 11 10  2  0  0  0  0
 12 11  2  0  0  0  0
 12  7  1  0  0  0  0
 13 14  1  0  0  0  0
 13 11  1  0  0  0  0
 14 19  2  0  0  0  0
 15 16  2  0  0  0  0
 15 14  1  0  0  0  0
 16 17  1  0  0  0  0
 17 18  2  0  0  0  0
 18 20  1  0  0  0  0
 19 18  1  0  0  0  0
 20 21  1  0  0  0  0
 21 36  2  0  0  0  0
 21 22  1  0  0  0  0
 22 27  2  0  0  0  0
 22 23  1  0  0  0  0
 23 24  2  0  0  0  0
 24 25  1  0  0  0  0
 25 28  1  0  0  0  0
 26 25  2  0  0  0  0
 27 26  1  0  0  0  0
 28 29  1  0  0  0  0
 29 35  1  0  0  0  0
 29 30  1  0  0  0  0
 30 31  1  0  0  0  0
 31 32  1  0  0  0  0
 32 33  1  0  0  0  0
 34 32  1  0  0  0  0
 35 34  1  0  0  0  0
 37 15  1  0  0  0  0
M  END
$$$$
2HZ0
 OpenBabel03172317123D

 31 33  0  0  1  0  0  0  0  0999 V2000
   15.1190   53.3330   15.1110 C   0  0  0  0  0  0  0  0  0  0  0  0
   15.6220   51.5480   16.6650 C   0  0  0  0  0  0  0  0  0  0  0  0
   15.0270   49.8420   18.9300 C   0  0  0  0  0  0  0  0  0  0  0  0
   16.3790   50.2980   18.6520 C   0  0  0  0  0  0  0  0  0  0  0  0
   16.6740   51.1290   17.5380 C   0  0  0  0  0  0  0  0  0  0  0  0
   14.8150   48.9370   20.1380 C   0  0  0  0  0  0  0  0  0  0  0  0
   15.0750   47.4190   19.8040 C   0  0  0  0  0  0  0  0  0  0  0  0
   14.8960   46.5750   21.0870 C   0  0  0  0  0  0  0  0  0  0  0  0
   14.1990   57.4130   14.4650 C   0  0  0  0  0  0  0  0  0  0  0  0
   13.1750   58.0050   13.4530 C   0  0  2  0  0  0  0  0  0  0  0  0
   12.9180   59.4140   13.4610 C   0  0  0  0  0  0  0  0  0  0  0  0
   12.0350   59.9830   12.6020 C   0  0  0  0  0  0  0  0  0  0  0  0
   15.6050   53.9810   13.8510 C   0  0  0  0  0  0  0  0  0  0  0  0
   16.5070   53.2930   13.0160 C   0  0  0  0  0  0  0  0  0  0  0  0
   16.9960   53.8760   11.8310 C   0  0  0  0  0  0  0  0  0  0  0  0
   16.5740   55.1650   11.4460 C   0  0  0  0  0  0  0  0  0  0  0  0
   15.6370   55.8620   12.2750 C   0  0  0  0  0  0  0  0  0  0  0  0
   15.1590   55.2760   13.4580 C   0  0  0  0  0  0  0  0  0  0  0  0
   14.2250   55.9600   14.2790 N   0  0  0  0  0  0  0  0  0  0  0  0
   15.9000   52.3310   15.5470 N   0  0  0  0  0  0  0  0  0  0  0  0
   14.0740   53.7190   15.6810 O   0  0  0  0  0  0  0  0  0  0  0  0
   14.3150   51.1040   16.9430 C   0  0  0  0  0  0  0  0  0  0  0  0
   13.9850   50.2740   18.0780 C   0  0  0  0  0  0  0  0  0  0  0  0
   12.5110   49.8570   18.2830 C   0  0  0  0  0  0  0  0  0  0  0  0
   11.7000   50.3240   17.3170 F   0  0  0  0  0  0  0  0  0  0  0  0
   12.2860   48.5720   18.3160 F   0  0  0  0  0  0  0  0  0  0  0  0
   12.0260   50.3240   19.4130 F   0  0  0  0  0  0  0  0  0  0  0  0
   11.2880   59.2020   11.6330 C   0  0  0  0  0  0  0  0  0  0  0  0
   11.5800   57.8320   11.6710 N   0  0  0  0  0  0  0  0  0  0  0  0
   12.4890   57.2410   12.5540 C   0  0  0  0  0  0  0  0  0  0  0  0
   10.5220   59.6890   10.8330 O   0  0  0  0  0  0  0  0  0  0  0  0
  1 20  1  0  0  0  0
  1 21  2  0  0  0  0
  2 22  2  0  0  0  0
  2  5  1  0  0  0  0
  3  6  1  0  0  0  0
  4  3  1  0  0  0  0
  5  4  2  0  0  0  0
  7  6  1  0  0  0  0
  7  8  1  0  0  0  0
 10 11  1  0  0  0  0
 10  9  1  1  0  0  0
 12 11  2  0  0  0  0
 13  1  1  0  0  0  0
 14 13  2  0  0  0  0
 15 14  1  0  0  0  0
 16 15  2  0  0  0  0
 16 17  1  0  0  0  0
 17 18  2  0  0  0  0
 18 13  1  0  0  0  0
 18 19  1  0  0  0  0
 19  9  1  0  0  0  0
 20  2  1  0  0  0  0
 22 23  1  0  0  0  0
 23 24  1  0  0  0  0
 23  3  2  0  0  0  0
 24 26  1  0  0  0  0
 24 27  1  0  0  0  0
 25 24  1  0  0  0  0
 28 29  1  0  0  0  0
 28 12  1  0  0  0  0
 29 30  2  0  0  0  0
 30 10  1  0  0  0  0
 31 28  2  0  0  0  0
M  END
$$$$
2HZI
 OpenBabel03172317123D

 27 30  0  0  0  0  0  0  0  0999 V2000
   13.4320   56.7160   11.9010 C   0  0  0  0  0  0  0  0  0  0  0  0
   14.9660   57.7860   13.3830 C   0  0  0  0  0  0  0  0  0  0  0  0
   14.6270   60.1490   14.0720 C   0  0  0  0  0  0  0  0  0  0  0  0
   16.0880   53.3360   13.7460 C   0  0  0  0  0  0  0  0  0  0  0  0
   17.0830   53.1420   12.7530 C   0  0  0  0  0  0  0  0  0  0  0  0
   15.3670   55.3620   12.6390 C   0  0  0  0  0  0  0  0  0  0  0  0
   15.2650   54.4720   13.6770 C   0  0  0  0  0  0  0  0  0  0  0  0
   10.8900   62.5200   12.2330 C   0  0  0  0  0  0  0  0  0  0  0  0
   11.2550   65.2590   13.0500 C   0  0  0  0  0  0  0  0  0  0  0  0
   11.9710   64.2490   13.6410 C   0  0  0  0  0  0  0  0  0  0  0  0
    9.5660   66.0420   11.4820 C   0  0  0  0  0  0  0  0  0  0  0  0
   11.4280   66.5060   13.4750 F   0  0  0  0  0  0  0  0  0  0  0  0
   10.3590   64.9060   12.0690 C   0  0  0  0  0  0  0  0  0  0  0  0
   10.1070   63.5610   11.6950 C   0  0  0  0  0  0  0  0  0  0  0  0
   11.7810   62.9120   13.2480 C   0  0  0  0  0  0  0  0  0  0  0  0
   10.5760   61.2690   11.7820 N   0  0  0  0  0  0  0  0  0  0  0  0
   11.3320   60.1630   11.8570 C   0  0  0  0  0  0  0  0  0  0  0  0
   10.8320   59.1700   11.1630 N   0  0  0  0  0  0  0  0  0  0  0  0
   11.4950   57.9960   11.1270 C   0  0  0  0  0  0  0  0  0  0  0  0
   12.4550   60.1190   12.5930 N   0  0  0  0  0  0  0  0  0  0  0  0
   13.1350   58.9550   12.5950 C   0  0  0  0  0  0  0  0  0  0  0  0
   14.2280   58.9040   13.3440 N   0  3  0  0  0  0  0  0  0  0  0  0
   15.9860   57.8050   14.0750 O   0  0  0  0  0  0  0  0  0  0  0  0
   14.6140   56.6500   12.6400 C   0  0  0  0  0  0  0  0  0  0  0  0
   12.6750   57.8790   11.8840 C   0  0  0  0  0  0  0  0  0  0  0  0
   16.3350   55.1610   11.6390 C   0  0  0  0  0  0  0  0  0  0  0  0
   17.1940   54.0470   11.6590 C   0  0  0  0  0  0  0  0  0  0  0  0
  1 24  2  0  0  0  0
  2 23  2  0  0  0  0
  5  4  2  0  0  0  0
  6 24  1  0  0  0  0
  6  7  2  0  0  0  0
  7  4  1  0  0  0  0
  8 15  2  0  0  0  0
  9 12  1  0  0  0  0
  9 10  2  0  0  0  0
 11 13  1  0  0  0  0
 13  9  1  0  0  0  0
 14 13  2  0  0  0  0
 14  8  1  0  0  0  0
 15 10  1  0  0  0  0
 16 17  1  0  0  0  0
 16  8  1  0  0  0  0
 17 20  2  0  0  0  0
 18 17  2  0  0  0  0
 19 18  1  0  0  0  0
 19 25  1  0  0  0  0
 20 21  1  0  0  0  0
 21 22  1  0  0  0  0
 22  2  1  0  0  0  0
 22  3  1  0  0  0  0
 24  2  1  0  0  0  0
 25  1  1  0  0  0  0
 25 21  2  0  0  0  0
 26 27  2  0  0  0  0
 26  6  1  0  0  0  0
 27  5  1  0  0  0  0
M  CHG  1  22   1
M  END
$$$$
2V7A
 OpenBabel03172317123D

 51 55  0  0  1  0  0  0  0  0999 V2000
   21.0200   42.6070   31.7250 N   0  0  0  0  0  0  0  0  0  0  0  0
   22.0810   43.0970   30.8530 C   0  0  2  0  0  0  0  0  0  0  0  0
   22.7920   44.1700   31.6380 C   0  0  0  0  0  0  0  0  0  0  0  0
   22.1500   44.9760   32.2930 O   0  0  0  0  0  0  0  0  0  0  0  0
   21.5150   43.6510   29.5320 C   0  0  0  0  0  0  0  0  0  0  0  0
   22.5510   44.1650   28.5520 C   0  0  0  0  0  0  0  0  0  0  0  0
   23.0830   45.4460   28.6760 C   0  0  0  0  0  0  0  0  0  0  0  0
   22.9760   43.3770   27.4710 C   0  0  0  0  0  0  0  0  0  0  0  0
   24.0300   45.9240   27.7740 C   0  0  0  0  0  0  0  0  0  0  0  0
   23.9390   43.8460   26.5740 C   0  0  0  0  0  0  0  0  0  0  0  0
   24.4690   45.1220   26.7290 C   0  0  0  0  0  0  0  0  0  0  0  0
   25.3200   45.6030   25.9530 O   0  0  0  0  0  0  0  0  0  0  0  0
   26.3900   44.8080   24.9850 P   0  0  0  0  0  0  0  0  0  0  0  0
   27.4880   45.7970   24.5440 O   0  0  0  0  0  0  0  0  0  0  0  0
   27.0510   43.6590   25.6780 O   0  0  0  0  0  0  0  0  0  0  0  0
   25.6730   44.3050   23.7200 O   0  0  0  0  0  0  0  0  0  0  0  0
   14.1500   58.7220   13.1100 N   0  0  0  0  0  0  0  0  0  0  0  0
   11.2880   58.0800   10.9850 N   0  0  0  0  0  0  0  0  0  0  0  0
   11.2420   60.2580   11.4720 C   0  0  1  0  0  0  0  0  0  0  0  0
   10.5570   59.2900   10.8360 N   0  0  0  0  0  0  0  0  0  0  0  0
   10.7360   61.5400   11.4970 N   0  0  0  0  0  0  0  0  0  0  0  0
   11.4150   62.6410   11.7740 C   0  0  0  0  0  0  0  0  0  0  0  0
   10.6720   63.9210   11.7640 C   0  0  0  0  0  0  0  0  0  0  0  0
   12.6060   62.6700   12.0200 O   0  0  0  0  0  0  0  0  0  0  0  0
   11.2200   64.9800   12.4700 C   0  0  0  0  0  0  0  0  0  0  0  0
   10.5970   66.2100   12.5000 C   0  0  0  0  0  0  0  0  0  0  0  0
    8.8490   65.2820   11.1070 C   0  0  0  0  0  0  0  0  0  0  0  0
    9.4790   64.0510   11.0680 C   0  0  0  0  0  0  0  0  0  0  0  0
   12.3930   58.3700   11.7020 C   0  0  1  0  0  0  0  0  0  0  0  0
   12.3930   59.7570   12.0460 C   0  0  2  0  0  0  0  0  0  0  0  0
   13.5890   60.0930   12.8810 C   0  0  0  0  0  0  0  0  0  0  0  0
   13.5660   57.6510   12.2730 C   0  0  0  0  0  0  0  0  0  0  0  0
    8.7730   67.6130   11.8440 N   0  0  0  0  0  0  0  0  0  0  0  0
    9.0830   68.5150   12.6900 C   0  0  0  0  0  0  0  0  0  0  0  0
    8.0800   69.1430   13.3220 C   0  0  0  0  0  0  0  0  0  0  0  0
    6.7470   69.1640   12.7770 N   0  0  0  0  0  0  0  0  0  0  0  0
    6.4960   68.0870   11.7800 C   0  0  0  0  0  0  0  0  0  0  0  0
    7.7070   67.8800   10.8740 C   0  0  0  0  0  0  0  0  0  0  0  0
    5.7350   69.0390   13.8450 C   0  0  0  0  0  0  0  0  0  0  0  0
    9.4100   66.3600   11.8190 C   0  0  0  0  0  0  0  0  0  0  0  0
   15.1160   58.4240   13.9920 C   0  0  0  0  0  0  0  0  0  0  0  0
   15.5400   57.2790   14.1380 O   0  0  0  0  0  0  0  0  0  0  0  0
   14.6980   59.8200   15.9220 C   0  0  0  0  0  0  0  0  0  0  0  0
   14.3220   61.1600   16.1770 C   0  0  0  0  0  0  0  0  0  0  0  0
   14.1360   58.7750   16.6850 C   0  0  0  0  0  0  0  0  0  0  0  0
   13.3810   61.4460   17.1650 C   0  0  0  0  0  0  0  0  0  0  0  0
   13.1980   59.0570   17.6650 C   0  0  0  0  0  0  0  0  0  0  0  0
   15.6840   59.5230   14.8370 C   0  0  1  0  0  0  0  0  0  0  0  0
   12.8270   60.3830   17.9070 C   0  0  0  0  0  0  0  0  0  0  0  0
   17.6540   60.0990   16.1050 C   0  0  0  0  0  0  0  0  0  0  0  0
   16.9580   59.1030   15.3300 O   0  0  0  0  0  0  0  0  0  0  0  0
  2  3  1  0  0  0  0
  2  1  1  1  0  0  0
  3  4  2  0  0  0  0
  5  2  1  0  0  0  0
  6  7  1  0  0  0  0
  6  5  1  0  0  0  0
  8  6  2  0  0  0  0
  9  7  2  0  0  0  0
 10 11  2  0  0  0  0
 10  8  1  0  0  0  0
 11  9  1  0  0  0  0
 12 11  1  0  0  0  0
 13 15  1  0  0  0  0
 13 12  1  0  0  0  0
 14 13  1  0  0  0  0
 16 13  2  0  0  0  0
 17 41  1  0  0  0  0
 18 29  1  0  0  0  0
 19 21  1  1  0  0  0
 19 30  1  0  0  0  0
 20 18  1  0  0  0  0
 20 19  1  0  0  0  0
 21 22  1  0  0  0  0
 22 24  2  0  0  0  0
 23 22  1  0  0  0  0
 23 25  2  0  0  0  0
 25 26  1  0  0  0  0
 27 40  1  0  0  0  0
 28 27  2  0  0  0  0
 28 23  1  0  0  0  0
 29 30  1  0  0  0  0
 29 32  1  1  0  0  0
 30 31  1  1  0  0  0
 31 17  1  0  0  0  0
 32 17  1  0  0  0  0
 33 34  1  0  0  0  0
 34 35  1  0  0  0  0
 36 35  1  0  0  0  0
 36 39  1  0  0  0  0
 37 36  1  0  0  0  0
 38 37  1  0  0  0  0
 38 33  1  0  0  0  0
 40 33  1  0  0  0  0
 40 26  2  0  0  0  0
 41 42  2  0  0  0  0
 43 44  2  0  0  0  0
 43 45  1  0  0  0  0
 44 46  1  0  0  0  0
 45 47  2  0  0  0  0
 46 49  2  0  0  0  0
 47 49  1  0  0  0  0
 48 41  1  6  0  0  0
 48 51  1  0  0  0  0
 48 43  1  0  0  0  0
 51 50  1  0  0  0  0
M  END
$$$$
3CS9
 OpenBabel03172317123D

 39 43  0  0  0  0  0  0  0  0999 V2000
   14.4790   52.2610   15.6790 O   0  0  0  0  0  0  0  0  0  0  0  0
   15.5250   51.9280   15.1780 C   0  0  0  0  0  0  0  0  0  0  0  0
   16.2360   50.8230   15.4460 N   0  0  0  0  0  0  0  0  0  0  0  0
   16.0010   49.9350   16.4880 C   0  0  0  0  0  0  0  0  0  0  0  0
   17.0470   49.1370   17.0130 C   0  0  0  0  0  0  0  0  0  0  0  0
   16.8230   48.2470   18.0680 C   0  0  0  0  0  0  0  0  0  0  0  0
   17.8600   47.4830   18.6230 N   0  0  0  0  0  0  0  0  0  0  0  0
   19.0840   47.1280   18.0590 C   0  0  0  0  0  0  0  0  0  0  0  0
   19.7280   46.3150   18.9250 C   0  0  0  0  0  0  0  0  0  0  0  0
   21.0920   45.6880   18.7710 C   0  0  0  0  0  0  0  0  0  0  0  0
   18.9510   46.1790   20.0220 N   0  0  0  0  0  0  0  0  0  0  0  0
   17.8460   46.8490   19.8010 C   0  0  0  0  0  0  0  0  0  0  0  0
   15.5330   48.0840   18.5630 C   0  0  0  0  0  0  0  0  0  0  0  0
   14.6900   49.7200   16.9660 C   0  0  0  0  0  0  0  0  0  0  0  0
   14.4670   48.8300   18.0550 C   0  0  0  0  0  0  0  0  0  0  0  0
   13.0770   48.6660   18.5800 C   0  0  0  0  0  0  0  0  0  0  0  0
   12.1180   48.5810   17.6370 F   0  0  0  0  0  0  0  0  0  0  0  0
   12.9410   47.5090   19.2170 F   0  0  0  0  0  0  0  0  0  0  0  0
   12.6860   49.7170   19.3310 F   0  0  0  0  0  0  0  0  0  0  0  0
   15.9060   52.6670   13.9580 C   0  0  0  0  0  0  0  0  0  0  0  0
   16.9440   52.2990   13.0890 C   0  0  0  0  0  0  0  0  0  0  0  0
   17.1640   52.9780   11.8890 C   0  0  0  0  0  0  0  0  0  0  0  0
   16.3140   53.9890   11.4700 C   0  0  0  0  0  0  0  0  0  0  0  0
   16.5610   54.7150   10.1560 C   0  0  0  0  0  0  0  0  0  0  0  0
   15.2200   54.2900   12.2800 C   0  0  0  0  0  0  0  0  0  0  0  0
   15.0310   53.6140   13.4920 C   0  0  0  0  0  0  0  0  0  0  0  0
   14.4430   55.4110   11.9600 N   0  0  0  0  0  0  0  0  0  0  0  0
   14.7330   56.6400   12.5580 C   0  0  0  0  0  0  0  0  0  0  0  0
   15.7280   56.9530   13.3780 N   0  0  0  0  0  0  0  0  0  0  0  0
   15.7500   58.2140   13.8500 C   0  0  0  0  0  0  0  0  0  0  0  0
   14.7930   59.1100   13.5620 C   0  0  0  0  0  0  0  0  0  0  0  0
   13.7910   58.7390   12.7360 C   0  0  0  0  0  0  0  0  0  0  0  0
   13.7440   57.5060   12.2170 N   0  0  0  0  0  0  0  0  0  0  0  0
   12.7070   59.6590   12.3060 C   0  0  0  0  0  0  0  0  0  0  0  0
   12.6600   60.9940   12.7380 C   0  0  0  0  0  0  0  0  0  0  0  0
   11.6090   61.8010   12.3240 C   0  0  0  0  0  0  0  0  0  0  0  0
   10.6520   61.2560   11.4680 C   0  0  0  0  0  0  0  0  0  0  0  0
   10.6580   59.9760   11.0600 N   0  0  0  0  0  0  0  0  0  0  0  0
   11.6780   59.2050   11.4570 C   0  0  0  0  0  0  0  0  0  0  0  0
  2  3  1  0  0  0  0
  2  1  2  0  0  0  0
  3  4  1  0  0  0  0
  4 14  2  0  0  0  0
  4  5  1  0  0  0  0
  5  6  2  0  0  0  0
  6 13  1  0  0  0  0
  6  7  1  0  0  0  0
  7 12  1  0  0  0  0
  8  7  1  0  0  0  0
  8  9  2  0  0  0  0
  9 11  1  0  0  0  0
 10  9  1  0  0  0  0
 12 11  2  0  0  0  0
 14 15  1  0  0  0  0
 15 13  2  0  0  0  0
 15 16  1  0  0  0  0
 16 18  1  0  0  0  0
 16 19  1  0  0  0  0
 17 16  1  0  0  0  0
 20  2  1  0  0  0  0
 21 20  2  0  0  0  0
 22 21  1  0  0  0  0
 23 22  2  0  0  0  0
 23 25  1  0  0  0  0
 24 23  1  0  0  0  0
 25 26  2  0  0  0  0
 26 20  1  0  0  0  0
 27 25  1  0  0  0  0
 27 28  1  0  0  0  0
 28 29  2  0  0  0  0
 29 30  1  0  0  0  0
 31 30  1  0  0  0  0
 32 31  2  0  0  0  0
 33 28  2  0  0  0  0
 33 32  1  0  0  0  0
 34 32  1  0  0  0  0
 34 35  2  0  0  0  0
 36 35  1  0  0  0  0
 37 36  2  0  0  0  0
 38 39  2  0  0  0  0
 38 37  1  0  0  0  0
 39 34  1  0  0  0  0
M  END
$$$$
3IK3
 OpenBabel03172317123D

 39 43  0  0  0  0  0  0  0  0999 V2000
   10.6200   58.5300   10.8650 N   0  0  0  0  0  0  0  0  0  0  0  0
   16.2200   46.2930   20.1800 N   0  0  0  0  0  0  0  0  0  0  0  0
   14.1810   55.6310   12.1950 C   0  0  0  0  0  0  0  0  0  0  0  0
   15.0570   54.4970   12.4430 C   0  0  0  0  0  0  0  0  0  0  0  0
   16.1240   54.1120   11.5370 C   0  0  0  0  0  0  0  0  0  0  0  0
   16.9340   52.9860   11.8440 C   0  0  0  0  0  0  0  0  0  0  0  0
   16.6960   52.2180   13.0620 C   0  0  0  0  0  0  0  0  0  0  0  0
   14.8220   53.7580   13.6230 C   0  0  0  0  0  0  0  0  0  0  0  0
   15.7830   49.7830   16.4510 C   0  0  0  0  0  0  0  0  0  0  0  0
   16.5430   47.7820   17.6680 C   0  0  0  0  0  0  0  0  0  0  0  0
   14.2200   48.5880   17.9970 C   0  0  0  0  0  0  0  0  0  0  0  0
   15.0990   46.4600   19.2770 C   0  0  0  0  0  0  0  0  0  0  0  0
   16.4260   47.4260   21.1140 C   0  0  0  0  0  0  0  0  0  0  0  0
   17.7290   47.2190   21.9300 C   0  0  0  0  0  0  0  0  0  0  0  0
   16.0870   45.0290   20.9570 C   0  0  0  0  0  0  0  0  0  0  0  0
   11.1070   60.7640   11.9410 C   0  0  0  0  0  0  0  0  0  0  0  0
   12.0400   61.3960   12.7610 C   0  0  0  0  0  0  0  0  0  0  0  0
   13.1720   60.6510   13.2340 C   0  0  0  0  0  0  0  0  0  0  0  0
   13.4280   59.3640   12.9550 N   0  0  0  0  0  0  0  0  0  0  0  0
   12.4790   58.7950   12.1460 N   0  0  0  0  0  0  0  0  0  0  0  0
   11.3040   59.3990   11.5990 C   0  0  0  0  0  0  0  0  0  0  0  0
   11.3380   57.3460   10.9270 C   0  0  0  0  0  0  0  0  0  0  0  0
   12.4520   57.5090   11.6910 C   0  0  0  0  0  0  0  0  0  0  0  0
   13.4030   56.5180   11.9680 C   0  0  0  0  0  0  0  0  0  0  0  0
   15.6250   52.6160   13.9580 C   0  0  0  0  0  0  0  0  0  0  0  0
   16.3950   54.8910   10.2420 C   0  0  0  0  0  0  0  0  0  0  0  0
   15.3060   51.8940   15.2160 C   0  0  0  0  0  0  0  0  0  0  0  0
   14.3580   52.2790   15.9090 O   0  0  0  0  0  0  0  0  0  0  0  0
   16.1020   50.8320   15.5310 N   0  0  0  0  0  0  0  0  0  0  0  0
   16.7940   48.8460   16.7550 C   0  0  0  0  0  0  0  0  0  0  0  0
   15.2770   47.6320   18.2990 C   0  0  0  0  0  0  0  0  0  0  0  0
   14.4990   49.6490   17.0760 C   0  0  0  0  0  0  0  0  0  0  0  0
   12.8380   48.5120   18.6260 C   0  0  0  0  0  0  0  0  0  0  0  0
   12.9320   48.7330   19.9280 F   0  0  0  0  0  0  0  0  0  0  0  0
   12.0100   49.4290   18.1380 F   0  0  0  0  0  0  0  0  0  0  0  0
   12.3010   47.2950   18.3850 F   0  0  0  0  0  0  0  0  0  0  0  0
   17.3820   44.7750   21.7540 C   0  0  0  0  0  0  0  0  0  0  0  0
   18.9860   45.6960   23.3510 C   0  0  0  0  0  0  0  0  0  0  0  0
   17.7130   45.9200   22.6560 N   0  0  0  0  0  0  0  0  0  0  0  0
  1 22  1  0  0  0  0
  1 21  2  0  0  0  0
  2 15  1  0  0  0  0
  2 13  1  0  0  0  0
  3  4  1  0  0  0  0
  4  8  2  0  0  0  0
  5  6  2  0  0  0  0
  5  4  1  0  0  0  0
  6  7  1  0  0  0  0
  7 25  2  0  0  0  0
  8 25  1  0  0  0  0
  9 30  2  0  0  0  0
  9 32  1  0  0  0  0
 10 31  2  0  0  0  0
 11 31  1  0  0  0  0
 11 33  1  0  0  0  0
 12  2  1  0  0  0  0
 13 14  1  0  0  0  0
 14 39  1  0  0  0  0
 15 37  1  0  0  0  0
 16 17  2  0  0  0  0
 17 18  1  0  0  0  0
 19 18  2  0  0  0  0
 20 19  1  0  0  0  0
 21 16  1  0  0  0  0
 21 20  1  0  0  0  0
 22 23  2  0  0  0  0
 23 24  1  0  0  0  0
 23 20  1  0  0  0  0
 24  3  3  0  0  0  0
 25 27  1  0  0  0  0
 26  5  1  0  0  0  0
 27 29  1  0  0  0  0
 27 28  2  0  0  0  0
 29  9  1  0  0  0  0
 30 10  1  0  0  0  0
 31 12  1  0  0  0  0
 32 11  2  0  0  0  0
 33 34  1  0  0  0  0
 35 33  1  0  0  0  0
 36 33  1  0  0  0  0
 37 39  1  0  0  0  0
 39 38  1  0  0  0  0
M  END
$$$$
3KF4
 OpenBabel03172317123D

 32 36  0  0  0  0  0  0  0  0999 V2000
   15.1580   55.0660   15.5880 N   0  0  0  0  0  0  0  0  0  0  0  0
   14.6740   55.9930   14.7740 C   0  0  0  0  0  0  0  0  0  0  0  0
   15.3600   55.7820   13.5020 C   0  0  0  0  0  0  0  0  0  0  0  0
   16.2620   54.6690   13.6780 C   0  0  0  0  0  0  0  0  0  0  0  0
   16.0690   54.3010   14.9760 N   0  0  0  0  0  0  0  0  0  0  0  0
   15.2930   56.4260   12.2480 C   0  0  0  0  0  0  0  0  0  0  0  0
   16.1200   55.9590   11.1620 C   0  0  0  0  0  0  0  0  0  0  0  0
   16.9980   54.8590   11.3790 C   0  0  0  0  0  0  0  0  0  0  0  0
   17.0590   54.2220   12.6410 C   0  0  0  0  0  0  0  0  0  0  0  0
   16.0860   56.6020    9.7980 C   0  0  0  0  0  0  0  0  0  0  0  0
   14.3700   57.5840   12.0490 C   0  0  0  0  0  0  0  0  0  0  0  0
   13.0300   57.4640   12.0720 C   0  0  0  0  0  0  0  0  0  0  0  0
   12.1300   58.5860   11.7420 N   0  0  0  0  0  0  0  0  0  0  0  0
   11.0480   58.5170   10.9260 C   0  0  0  0  0  0  0  0  0  0  0  0
   10.4250   59.6960   10.8160 N   0  0  0  0  0  0  0  0  0  0  0  0
   11.1480   60.5870   11.6100 C   0  0  0  0  0  0  0  0  0  0  0  0
   12.2270   59.8870   12.2100 C   0  0  0  0  0  0  0  0  0  0  0  0
   11.0360   61.9300   11.9330 C   0  0  0  0  0  0  0  0  0  0  0  0
   11.9350   62.5370   12.7810 N   0  0  0  0  0  0  0  0  0  0  0  0
   12.9450   61.7830   13.3080 C   0  0  0  0  0  0  0  0  0  0  0  0
   13.1230   60.4790   13.0470 N   0  0  0  0  0  0  0  0  0  0  0  0
   10.0070   62.6270   11.3710 N   0  0  0  0  0  0  0  0  0  0  0  0
    9.6980   63.9710   11.4790 C   0  0  0  0  0  0  0  0  0  0  0  0
    8.4790   64.4060   10.8870 C   0  0  0  0  0  0  0  0  0  0  0  0
    8.0850   65.7580   10.9680 C   0  0  0  0  0  0  0  0  0  0  0  0
    8.8970   66.6910   11.6360 C   0  0  0  0  0  0  0  0  0  0  0  0
   10.1190   66.2820   12.2240 C   0  0  0  0  0  0  0  0  0  0  0  0
   10.5220   64.9300   12.1480 C   0  0  0  0  0  0  0  0  0  0  0  0
    8.3280   68.4170   11.7320 P   0  0  0  0  0  0  0  0  0  0  0  0
    9.7040   69.4840   12.3800 C   0  0  0  0  0  0  0  0  0  0  0  0
    6.9860   68.6120   12.9870 C   0  0  0  0  0  0  0  0  0  0  0  0
    7.8880   68.8780   10.4050 O   0  0  0  0  0  0  0  0  0  0  0  0
  2  1  1  0  0  0  0
  3  4  1  0  0  0  0
  3  2  2  0  0  0  0
  4  5  2  0  0  0  0
  5  1  1  0  0  0  0
  6  3  1  0  0  0  0
  7  8  1  0  0  0  0
  7  6  2  0  0  0  0
  8  9  2  0  0  0  0
  9  4  1  0  0  0  0
 10  7  1  0  0  0  0
 11 12  2  0  0  0  0
 11  6  1  0  0  0  0
 13 12  1  0  0  0  0
 13 17  1  0  0  0  0
 14 13  1  0  0  0  0
 15 14  2  0  0  0  0
 15 16  1  0  0  0  0
 16 18  2  0  0  0  0
 16 17  1  0  0  0  0
 17 21  2  0  0  0  0
 18 19  1  0  0  0  0
 19 20  2  0  0  0  0
 21 20  1  0  0  0  0
 22 23  1  0  0  0  0
 22 18  1  0  0  0  0
 23 28  2  0  0  0  0
 24 25  2  0  0  0  0
 24 23  1  0  0  0  0
 25 26  1  0  0  0  0
 26 29  1  0  0  0  0
 26 27  2  0  0  0  0
 28 27  1  0  0  0  0
 29 30  1  0  0  0  0
 29 31  1  0  0  0  0
 32 29  2  0  0  0  0
M  END
$$$$
3KFA
 OpenBabel03172317123D

 41 46  0  0  0  0  0  0  0  0999 V2000
   12.5860   58.5070   12.0070 C   0  0  0  0  0  0  0  0  0  0  0  0
   12.5870   49.4680   19.3410 F   0  0  0  0  0  0  0  0  0  0  0  0
   12.2570   57.2130   11.6940 N   0  0  0  0  0  0  0  0  0  0  0  0
   14.0590   52.2720   15.6420 O   0  0  0  0  0  0  0  0  0  0  0  0
    9.4860   63.6580   11.0610 C   0  0  0  0  0  0  0  0  0  0  0  0
   11.9840   48.4580   17.5910 F   0  0  0  0  0  0  0  0  0  0  0  0
   15.8610   50.9130   15.3310 N   0  0  0  0  0  0  0  0  0  0  0  0
   13.0060   55.9770   11.8700 C   0  0  0  0  0  0  0  0  0  0  0  0
   12.8910   47.3540   19.2040 F   0  0  0  0  0  0  0  0  0  0  0  0
   17.8820   47.6510   18.1500 N   0  0  0  0  0  0  0  0  0  0  0  0
   14.2880   55.9120   12.1020 C   0  0  0  0  0  0  0  0  0  0  0  0
   19.2570   45.9920   18.6220 N   0  0  0  0  0  0  0  0  0  0  0  0
   14.9690   54.6380   12.3280 C   0  0  0  0  0  0  0  0  0  0  0  0
   10.5140   58.4190   11.0890 N   0  0  0  0  0  0  0  0  0  0  0  0
   15.8740   54.1260   11.3690 C   0  0  0  0  0  0  0  0  0  0  0  0
   13.7060   59.0070   12.5560 N   0  0  0  0  0  0  0  0  0  0  0  0
   16.5480   52.8960   11.5980 C   0  0  0  0  0  0  0  0  0  0  0  0
   12.6550   61.1420   12.4160 N   0  0  0  0  0  0  0  0  0  0  0  0
   16.2960   52.1730   12.7890 C   0  0  0  0  0  0  0  0  0  0  0  0
   10.4740   61.4130   11.5340 N   0  0  0  0  0  0  0  0  0  0  0  0
   15.3780   52.6730   13.7490 C   0  0  0  0  0  0  0  0  0  0  0  0
   14.7200   53.9100   13.5210 C   0  0  0  0  0  0  0  0  0  0  0  0
   16.1390   54.8520   10.0880 C   0  0  0  0  0  0  0  0  0  0  0  0
   15.0580   51.9530   14.9810 C   0  0  0  0  0  0  0  0  0  0  0  0
   15.6610   49.9980   16.3400 C   0  0  0  0  0  0  0  0  0  0  0  0
   16.7720   49.3140   16.7800 C   0  0  0  0  0  0  0  0  0  0  0  0
   16.7020   48.3320   17.8030 C   0  0  0  0  0  0  0  0  0  0  0  0
   15.4390   48.0620   18.3770 C   0  0  0  0  0  0  0  0  0  0  0  0
   14.2680   48.7510   17.9440 C   0  0  0  0  0  0  0  0  0  0  0  0
   14.3980   49.7140   16.9190 C   0  0  0  0  0  0  0  0  0  0  0  0
   12.9010   48.4920   18.5290 C   0  0  0  0  0  0  0  0  0  0  0  0
   19.1410   48.1920   18.2490 C   0  0  0  0  0  0  0  0  0  0  0  0
   17.9640   46.2940   18.3810 C   0  0  0  0  0  0  0  0  0  0  0  0
   10.4880   62.8730   11.9000 C   0  0  0  0  0  0  0  0  0  0  0  0
   19.9790   47.1240   18.5450 C   0  0  0  0  0  0  0  0  0  0  0  0
   11.0120   57.1480   11.1370 C   0  0  0  0  0  0  0  0  0  0  0  0
   21.4300   47.1350   18.7450 C   0  0  0  0  0  0  0  0  0  0  0  0
   10.9860   63.7640   10.7450 C   0  0  0  0  0  0  0  0  0  0  0  0
   11.4570   59.2610   11.6210 C   0  0  0  0  0  0  0  0  0  0  0  0
   11.5310   60.6220   11.8570 C   0  0  0  0  0  0  0  0  0  0  0  0
   13.7040   60.3580   12.7480 C   0  0  0  0  0  0  0  0  0  0  0  0
  1 16  2  0  0  0  0
  3  8  1  0  0  0  0
  3  1  1  0  0  0  0
  5 34  1  0  0  0  0
  6 31  1  0  0  0  0
  7 25  1  0  0  0  0
  8 11  2  0  0  0  0
 10 32  1  0  0  0  0
 10 33  1  0  0  0  0
 11 13  1  0  0  0  0
 13 22  2  0  0  0  0
 14 36  2  0  0  0  0
 14 39  1  0  0  0  0
 15 17  2  0  0  0  0
 15 13  1  0  0  0  0
 16 41  1  0  0  0  0
 17 19  1  0  0  0  0
 18 41  2  0  0  0  0
 19 21  2  0  0  0  0
 20 40  1  0  0  0  0
 20 34  1  0  0  0  0
 21 24  1  0  0  0  0
 22 21  1  0  0  0  0
 23 15  1  0  0  0  0
 24  7  1  0  0  0  0
 24  4  2  0  0  0  0
 25 26  2  0  0  0  0
 25 30  1  0  0  0  0
 26 27  1  0  0  0  0
 27 10  1  0  0  0  0
 27 28  2  0  0  0  0
 29 28  1  0  0  0  0
 29 31  1  0  0  0  0
 30 29  2  0  0  0  0
 31  9  1  0  0  0  0
 31  2  1  0  0  0  0
 32 35  2  0  0  0  0
 33 12  2  0  0  0  0
 35 12  1  0  0  0  0
 35 37  1  0  0  0  0
 36  3  1  0  0  0  0
 38  5  1  0  0  0  0
 38 34  1  0  0  0  0
 39 40  2  0  0  0  0
 39  1  1  0  0  0  0
 40 18  1  0  0  0  0
M  END
$$$$
3OXZ
 OpenBabel03172317123D

 39 43  0  0  0  0  0  0  0  0999 V2000
   10.3100   58.6430   10.9660 N   0  0  0  0  0  0  0  0  0  0  0  0
   15.8670   46.2350   20.0640 N   0  0  0  0  0  0  0  0  0  0  0  0
   13.9000   55.7150   12.1630 C   0  0  0  0  0  0  0  0  0  0  0  0
   14.7420   54.5410   12.3680 C   0  0  0  0  0  0  0  0  0  0  0  0
   15.7480   54.0770   11.4140 C   0  0  0  0  0  0  0  0  0  0  0  0
   16.5070   52.8920   11.7210 C   0  0  0  0  0  0  0  0  0  0  0  0
   16.2730   52.1830   12.9380 C   0  0  0  0  0  0  0  0  0  0  0  0
   14.5320   53.8200   13.5680 C   0  0  0  0  0  0  0  0  0  0  0  0
   15.3430   49.7700   16.3070 C   0  0  0  0  0  0  0  0  0  0  0  0
   16.1480   47.8360   17.6100 C   0  0  0  0  0  0  0  0  0  0  0  0
   13.7580   48.5660   17.8430 C   0  0  0  0  0  0  0  0  0  0  0  0
   14.6880   46.4880   19.2250 C   0  0  0  0  0  0  0  0  0  0  0  0
   16.2140   47.3840   20.9540 C   0  0  0  0  0  0  0  0  0  0  0  0
   17.5480   47.1130   21.6860 C   0  0  0  0  0  0  0  0  0  0  0  0
   15.7220   45.0140   20.8790 C   0  0  0  0  0  0  0  0  0  0  0  0
   10.7840   60.8790   12.0490 C   0  0  0  0  0  0  0  0  0  0  0  0
   11.7170   61.5160   12.8500 C   0  0  0  0  0  0  0  0  0  0  0  0
   12.8620   60.7910   13.2920 C   0  0  0  0  0  0  0  0  0  0  0  0
   13.1370   59.5100   13.0060 N   0  0  0  0  0  0  0  0  0  0  0  0
   12.1780   58.9200   12.2080 N   0  0  0  0  0  0  0  0  0  0  0  0
   10.9940   59.5090   11.6920 C   0  0  0  0  0  0  0  0  0  0  0  0
   11.0380   57.4690   11.0020 C   0  0  0  0  0  0  0  0  0  0  0  0
   12.1600   57.6320   11.7450 C   0  0  0  0  0  0  0  0  0  0  0  0
   13.1210   56.6350   11.9840 C   0  0  0  0  0  0  0  0  0  0  0  0
   15.2770   52.6530   13.8760 C   0  0  0  0  0  0  0  0  0  0  0  0
   16.0340   54.7930   10.0950 C   0  0  0  0  0  0  0  0  0  0  0  0
   14.9920   51.9520   15.1710 C   0  0  0  0  0  0  0  0  0  0  0  0
   14.1990   52.4460   15.9780 O   0  0  0  0  0  0  0  0  0  0  0  0
   15.6450   50.7910   15.3700 N   0  0  0  0  0  0  0  0  0  0  0  0
   16.3890   48.8860   16.6690 C   0  0  0  0  0  0  0  0  0  0  0  0
   14.8450   47.6500   18.2150 C   0  0  0  0  0  0  0  0  0  0  0  0
   14.0400   49.6000   16.8980 C   0  0  0  0  0  0  0  0  0  0  0  0
   12.3230   48.4870   18.4110 C   0  0  0  0  0  0  0  0  0  0  0  0
   12.3200   48.8810   19.6720 F   0  0  0  0  0  0  0  0  0  0  0  0
   11.4700   49.2770   17.7630 F   0  0  0  0  0  0  0  0  0  0  0  0
   11.8430   47.2430   18.3300 F   0  0  0  0  0  0  0  0  0  0  0  0
   17.0010   44.7320   21.7280 C   0  0  0  0  0  0  0  0  0  0  0  0
   18.6190   45.6770   23.3240 C   0  0  0  0  0  0  0  0  0  0  0  0
   17.4140   45.9170   22.5420 N   0  0  0  0  0  0  0  0  0  0  0  0
  1 22  1  0  0  0  0
  1 21  2  0  0  0  0
  2 15  1  0  0  0  0
  2 13  1  0  0  0  0
  3  4  1  0  0  0  0
  4  8  2  0  0  0  0
  5  6  2  0  0  0  0
  5  4  1  0  0  0  0
  6  7  1  0  0  0  0
  7 25  2  0  0  0  0
  8 25  1  0  0  0  0
  9 30  2  0  0  0  0
  9 32  1  0  0  0  0
 10 31  2  0  0  0  0
 11 31  1  0  0  0  0
 11 33  1  0  0  0  0
 12  2  1  0  0  0  0
 13 14  1  0  0  0  0
 14 39  1  0  0  0  0
 15 37  1  0  0  0  0
 16 17  2  0  0  0  0
 17 18  1  0  0  0  0
 19 18  2  0  0  0  0
 20 19  1  0  0  0  0
 21 16  1  0  0  0  0
 21 20  1  0  0  0  0
 22 23  2  0  0  0  0
 23 24  1  0  0  0  0
 23 20  1  0  0  0  0
 24  3  3  0  0  0  0
 25 27  1  0  0  0  0
 26  5  1  0  0  0  0
 27 29  1  0  0  0  0
 27 28  2  0  0  0  0
 29  9  1  0  0  0  0
 30 10  1  0  0  0  0
 31 12  1  0  0  0  0
 32 11  2  0  0  0  0
 33 34  1  0  0  0  0
 35 33  1  0  0  0  0
 36 33  1  0  0  0  0
 37 39  1  0  0  0  0
 39 38  1  0  0  0  0
M  END
$$$$
3OY3
 OpenBabel03172317123D

 41 44  0  0  0  0  0  0  0  0999 V2000
   10.7140   58.9390   11.2110 N   0  0  0  0  0  0  0  0  0  0  0  0
   16.1590   46.4890   20.2240 N   0  0  0  0  0  0  0  0  0  0  0  0
   14.1040   55.8700   12.2710 C   0  0  0  0  0  0  0  0  0  0  0  0
   14.8790   54.6770   12.4190 C   0  0  0  0  0  0  0  0  0  0  0  0
   15.8370   54.2640   11.4220 C   0  0  0  0  0  0  0  0  0  0  0  0
   16.5640   53.0650   11.6250 C   0  0  0  0  0  0  0  0  0  0  0  0
   16.3590   52.2780   12.8100 C   0  0  0  0  0  0  0  0  0  0  0  0
   14.6740   53.9200   13.5810 C   0  0  0  0  0  0  0  0  0  0  0  0
   15.6500   49.8830   16.3600 C   0  0  0  0  0  0  0  0  0  0  0  0
   16.4840   47.9760   17.7090 C   0  0  0  0  0  0  0  0  0  0  0  0
   14.1050   48.6850   17.9590 C   0  0  0  0  0  0  0  0  0  0  0  0
   15.0180   46.6750   19.3780 C   0  0  0  0  0  0  0  0  0  0  0  0
   16.5430   47.6770   21.0520 C   0  0  0  0  0  0  0  0  0  0  0  0
   17.9110   47.4110   21.7540 C   0  0  0  0  0  0  0  0  0  0  0  0
   16.0640   45.2610   21.0600 C   0  0  0  0  0  0  0  0  0  0  0  0
   13.9670   59.6830   12.6410 C   0  0  0  0  0  0  0  0  0  0  0  0
   11.4620   61.2750   11.7900 C   0  0  0  0  0  0  0  0  0  0  0  0
   12.5630   62.0470   12.0650 O   0  0  0  0  0  0  0  0  0  0  0  0
   12.8450   59.1830   12.0070 N   0  0  0  0  0  0  0  0  0  0  0  0
   11.5940   59.8410   11.6570 C   0  0  0  0  0  0  0  0  0  0  0  0
   11.2760   57.7180   11.4370 C   0  0  0  0  0  0  0  0  0  0  0  0
   12.5510   57.8600   11.8680 C   0  0  0  0  0  0  0  0  0  0  0  0
   13.4060   56.8100   12.1100 C   0  0  0  0  0  0  0  0  0  0  0  0
   15.3980   52.7120   13.8100 C   0  0  0  0  0  0  0  0  0  0  0  0
   16.0780   55.0900   10.1540 C   0  0  0  0  0  0  0  0  0  0  0  0
   15.1150   51.9610   15.0850 C   0  0  0  0  0  0  0  0  0  0  0  0
   14.1510   52.3190   15.8060 O   0  0  0  0  0  0  0  0  0  0  0  0
   15.9230   50.9040   15.3830 N   0  0  0  0  0  0  0  0  0  0  0  0
   16.7030   49.0060   16.7350 C   0  0  0  0  0  0  0  0  0  0  0  0
   15.1850   47.8040   18.3290 C   0  0  0  0  0  0  0  0  0  0  0  0
   14.3490   49.7120   16.9840 C   0  0  0  0  0  0  0  0  0  0  0  0
   12.7020   48.5650   18.5800 C   0  0  0  0  0  0  0  0  0  0  0  0
   12.7560   48.9390   19.8490 F   0  0  0  0  0  0  0  0  0  0  0  0
   11.7970   49.3280   18.0080 F   0  0  0  0  0  0  0  0  0  0  0  0
   12.2690   47.3120   18.4800 F   0  0  0  0  0  0  0  0  0  0  0  0
   17.4370   44.9730   21.7290 C   0  0  0  0  0  0  0  0  0  0  0  0
   19.1900   45.9290   23.2800 C   0  0  0  0  0  0  0  0  0  0  0  0
   17.8870   46.1450   22.5650 N   0  0  0  0  0  0  0  0  0  0  0  0
   10.4600   61.7310   11.6410 N   0  0  0  0  0  0  0  0  0  0  0  0
   19.2870   44.9120   23.8010 C   0  0  0  0  0  0  0  0  0  0  0  0
   18.5490   44.9080   25.1680 O   0  0  0  0  0  0  0  0  0  0  0  0
  1 21  1  0  0  0  0
  1 20  2  0  0  0  0
  2 13  1  0  0  0  0
  2 15  1  0  0  0  0
  3  4  1  0  0  0  0
  4  8  2  0  0  0  0
  5  6  2  0  0  0  0
  5  4  1  0  0  0  0
  6  7  1  0  0  0  0
  7 24  2  0  0  0  0
  8 24  1  0  0  0  0
  9 29  2  0  0  0  0
  9 31  1  0  0  0  0
 10 30  2  0  0  0  0
 11 30  1  0  0  0  0
 11 32  1  0  0  0  0
 12  2  1  0  0  0  0
 13 14  1  0  0  0  0
 14 38  1  0  0  0  0
 15 36  1  0  0  0  0
 17 18  2  0  0  0  0
 19 16  1  0  0  0  0
 20 17  1  0  0  0  0
 20 19  1  0  0  0  0
 21 22  2  0  0  0  0
 22 19  1  0  0  0  0
 22 23  1  0  0  0  0
 23  3  3  0  0  0  0
 24 26  1  0  0  0  0
 25  5  1  0  0  0  0
 26 28  1  0  0  0  0
 26 27  2  0  0  0  0
 28  9  1  0  0  0  0
 29 10  1  0  0  0  0
 30 12  1  0  0  0  0
 31 11  2  0  0  0  0
 32 33  1  0  0  0  0
 34 32  1  0  0  0  0
 35 32  1  0  0  0  0
 36 38  1  0  0  0  0
 37 40  1  0  0  0  0
 38 37  1  0  0  0  0
 39 17  1  0  0  0  0
 40 41  1  0  0  0  0
M  END
$$$$
3QRI
 OpenBabel03172317123D

 41 45  0  0  0  0  0  0  0  0999 V2000
   18.3060   48.7680   17.4720 C   0  0  0  0  0  0  0  0  0  0  0  0
   19.1360   47.6430   17.4490 C   0  0  0  0  0  0  0  0  0  0  0  0
   20.5230   47.7170   17.5110 C   0  0  0  0  0  0  0  0  0  0  0  0
   21.1560   48.9520   17.5180 C   0  0  0  0  0  0  0  0  0  0  0  0
   20.3770   50.0890   17.6410 C   0  0  0  0  0  0  0  0  0  0  0  0
   18.9760   49.9920   17.5710 C   0  0  0  0  0  0  0  0  0  0  0  0
   23.1200   50.1980   17.8520 C   0  0  0  0  0  0  0  0  0  0  0  0
   22.5020   49.0250   17.6260 N   0  0  0  0  0  0  0  0  0  0  0  0
   21.0090   51.3290   17.7330 C   0  0  0  0  0  0  0  0  0  0  0  0
   22.3990   51.3830   17.6930 C   0  0  0  0  0  0  0  0  0  0  0  0
   11.1800   57.0810   11.2890 C   0  0  0  0  0  0  0  0  0  0  0  0
   11.0820   58.4170   11.3770 N   0  0  0  0  0  0  0  0  0  0  0  0
   12.1490   59.1860   11.6530 C   0  0  0  0  0  0  0  0  0  0  0  0
   13.4010   58.5930   11.8150 C   0  0  0  0  0  0  0  0  0  0  0  0
   13.5260   57.2140   11.7210 C   0  0  0  0  0  0  0  0  0  0  0  0
   12.4060   56.4490   11.4540 C   0  0  0  0  0  0  0  0  0  0  0  0
   15.0400   53.9420   14.3460 C   0  0  0  0  0  0  0  0  0  0  0  0
   14.6000   55.1000   13.7030 C   0  0  0  0  0  0  0  0  0  0  0  0
   15.1410   55.4940   12.4870 C   0  0  0  0  0  0  0  0  0  0  0  0
   16.1400   54.7190   11.9070 C   0  0  0  0  0  0  0  0  0  0  0  0
   16.5700   53.5620   12.5380 C   0  0  0  0  0  0  0  0  0  0  0  0
   16.0250   53.1450   13.7520 C   0  0  0  0  0  0  0  0  0  0  0  0
   15.0770   48.1190   18.2130 C   0  0  0  0  0  0  0  0  0  0  0  0
   14.8500   49.1130   17.2810 C   0  0  0  0  0  0  0  0  0  0  0  0
   16.0850   49.3460   16.6920 C   0  0  0  0  0  0  0  0  0  0  0  0
   16.9710   48.5960   17.3890 N   0  0  0  0  0  0  0  0  0  0  0  0
   16.3640   47.7960   18.3530 N   0  0  0  0  0  0  0  0  0  0  0  0
   16.5620   50.2130   15.7480 N   0  0  0  0  0  0  0  0  0  0  0  0
   15.8640   51.2600   15.2580 C   0  0  0  0  0  0  0  0  0  0  0  0
   16.5140   52.0250   14.3640 N   0  0  0  0  0  0  0  0  0  0  0  0
   14.7060   51.4980   15.5970 O   0  0  0  0  0  0  0  0  0  0  0  0
   14.7690   56.6530   11.8550 O   0  0  0  0  0  0  0  0  0  0  0  0
   17.5210   52.8520   11.9350 F   0  0  0  0  0  0  0  0  0  0  0  0
   11.9760   60.6850   11.7520 C   0  0  0  0  0  0  0  0  0  0  0  0
   12.9130   61.3690   12.1300 O   0  0  0  0  0  0  0  0  0  0  0  0
   10.8080   61.2220   11.4150 N   0  0  0  0  0  0  0  0  0  0  0  0
   10.6670   62.6520   11.2210 C   0  0  0  0  0  0  0  0  0  0  0  0
   14.0560   47.6890   19.2340 C   0  0  0  0  0  0  0  0  0  0  0  0
   13.3680   46.4600   18.6470 C   0  0  0  0  0  0  0  0  0  0  0  0
   13.0300   48.7970   19.5020 C   0  0  0  0  0  0  0  0  0  0  0  0
   14.7590   47.3100   20.5350 C   0  0  0  0  0  0  0  0  0  0  0  0
  1  6  1  0  0  0  0
  2  1  2  0  0  0  0
  2  3  1  0  0  0  0
  3  4  2  0  0  0  0
  4  8  1  0  0  0  0
  4  5  1  0  0  0  0
  5  9  1  0  0  0  0
  6  5  2  0  0  0  0
  8  7  2  0  0  0  0
 10  9  2  0  0  0  0
 10  7  1  0  0  0  0
 11 12  2  0  0  0  0
 11 16  1  0  0  0  0
 12 13  1  0  0  0  0
 13 34  1  0  0  0  0
 13 14  2  0  0  0  0
 15 14  1  0  0  0  0
 15 32  1  0  0  0  0
 16 15  2  0  0  0  0
 18 17  2  0  0  0  0
 19 18  1  0  0  0  0
 20 19  2  0  0  0  0
 20 21  1  0  0  0  0
 21 22  2  0  0  0  0
 22 17  1  0  0  0  0
 22 30  1  0  0  0  0
 23 27  2  0  0  0  0
 23 38  1  0  0  0  0
 24 23  1  0  0  0  0
 25 24  2  0  0  0  0
 25 26  1  0  0  0  0
 26  1  1  0  0  0  0
 26 27  1  0  0  0  0
 28 25  1  0  0  0  0
 29 31  2  0  0  0  0
 29 28  1  0  0  0  0
 30 29  1  0  0  0  0
 32 19  1  0  0  0  0
 33 21  1  0  0  0  0
 34 35  2  0  0  0  0
 36 34  1  0  0  0  0
 37 36  1  0  0  0  0
 38 40  1  0  0  0  0
 38 41  1  0  0  0  0
 39 38  1  0  0  0  0
M  END
$$$$
3QRJ
 OpenBabel03172317123D

 41 45  0  0  0  0  0  0  0  0999 V2000
   18.2040   48.3280   17.5030 C   0  0  0  0  0  0  0  0  0  0  0  0
   18.9460   47.1280   17.4290 C   0  0  0  0  0  0  0  0  0  0  0  0
   20.3510   47.0970   17.4060 C   0  0  0  0  0  0  0  0  0  0  0  0
   21.0720   48.2810   17.4530 C   0  0  0  0  0  0  0  0  0  0  0  0
   20.3770   49.4910   17.5290 C   0  0  0  0  0  0  0  0  0  0  0  0
   18.9900   49.4920   17.5550 C   0  0  0  0  0  0  0  0  0  0  0  0
   23.1120   49.4430   17.4820 C   0  0  0  0  0  0  0  0  0  0  0  0
   22.4220   48.2820   17.4480 N   0  0  0  0  0  0  0  0  0  0  0  0
   21.0610   50.7040   17.5820 C   0  0  0  0  0  0  0  0  0  0  0  0
   22.4540   50.6730   17.5620 C   0  0  0  0  0  0  0  0  0  0  0  0
   11.0940   56.7200   11.0120 C   0  0  0  0  0  0  0  0  0  0  0  0
   10.8650   58.0470   11.1590 N   0  0  0  0  0  0  0  0  0  0  0  0
   11.8700   58.8610   11.6080 C   0  0  0  0  0  0  0  0  0  0  0  0
   13.1440   58.3450   11.8740 C   0  0  0  0  0  0  0  0  0  0  0  0
   13.3940   56.9820   11.7190 C   0  0  0  0  0  0  0  0  0  0  0  0
   12.3550   56.1820   11.2640 C   0  0  0  0  0  0  0  0  0  0  0  0
   14.5550   53.5520   14.1340 C   0  0  0  0  0  0  0  0  0  0  0  0
   14.1830   54.7470   13.5430 C   0  0  0  0  0  0  0  0  0  0  0  0
   14.9950   55.3230   12.5680 C   0  0  0  0  0  0  0  0  0  0  0  0
   16.1580   54.6850   12.2000 C   0  0  0  0  0  0  0  0  0  0  0  0
   16.5320   53.4950   12.8090 C   0  0  0  0  0  0  0  0  0  0  0  0
   15.7560   52.9170   13.7920 C   0  0  0  0  0  0  0  0  0  0  0  0
   14.8400   47.8840   18.0970 C   0  0  0  0  0  0  0  0  0  0  0  0
   14.7050   48.8300   17.1250 C   0  0  0  0  0  0  0  0  0  0  0  0
   16.0180   49.1940   16.8030 C   0  0  0  0  0  0  0  0  0  0  0  0
   16.8400   48.3700   17.5080 N   0  0  0  0  0  0  0  0  0  0  0  0
   16.1170   47.4950   18.3550 N   0  0  0  0  0  0  0  0  0  0  0  0
   16.4870   50.0920   15.8890 N   0  0  0  0  0  0  0  0  0  0  0  0
   15.7530   51.1260   15.4240 C   0  0  0  0  0  0  0  0  0  0  0  0
   16.2380   51.7540   14.3330 N   0  0  0  0  0  0  0  0  0  0  0  0
   14.6870   51.4330   15.9580 O   0  0  0  0  0  0  0  0  0  0  0  0
   14.6730   56.4970   11.9540 O   0  0  0  0  0  0  0  0  0  0  0  0
   17.6730   52.8830   12.4540 F   0  0  0  0  0  0  0  0  0  0  0  0
   11.6180   60.3230   11.8190 C   0  0  0  0  0  0  0  0  0  0  0  0
   12.3660   60.9450   12.5870 O   0  0  0  0  0  0  0  0  0  0  0  0
   10.6290   60.8690   11.1170 N   0  0  0  0  0  0  0  0  0  0  0  0
   10.4500   62.3030   10.9490 C   0  0  0  0  0  0  0  0  0  0  0  0
   13.6260   47.2120   18.7200 C   0  0  0  0  0  0  0  0  0  0  0  0
   12.6640   46.6880   17.6730 C   0  0  0  0  0  0  0  0  0  0  0  0
   12.8290   48.2170   19.5430 C   0  0  0  0  0  0  0  0  0  0  0  0
   14.1110   45.9470   19.3860 C   0  0  0  0  0  0  0  0  0  0  0  0
  1 26  1  0  0  0  0
  1  6  2  0  0  0  0
  2  1  1  0  0  0  0
  3  2  2  0  0  0  0
  3  4  1  0  0  0  0
  4  5  1  0  0  0  0
  5  6  1  0  0  0  0
  5  9  2  0  0  0  0
  7 10  2  0  0  0  0
  8  4  2  0  0  0  0
  8  7  1  0  0  0  0
 10  9  1  0  0  0  0
 11 12  2  0  0  0  0
 11 16  1  0  0  0  0
 12 13  1  0  0  0  0
 13 34  1  0  0  0  0
 13 14  2  0  0  0  0
 15 14  1  0  0  0  0
 15 32  1  0  0  0  0
 16 15  2  0  0  0  0
 18 17  2  0  0  0  0
 19 18  1  0  0  0  0
 20 19  2  0  0  0  0
 20 21  1  0  0  0  0
 21 22  2  0  0  0  0
 22 17  1  0  0  0  0
 22 30  1  0  0  0  0
 23 27  2  0  0  0  0
 23 38  1  0  0  0  0
 24 23  1  0  0  0  0
 25 24  2  0  0  0  0
 25 26  1  0  0  0  0
 26 27  1  0  0  0  0
 28 25  1  0  0  0  0
 29 28  1  0  0  0  0
 29 31  2  0  0  0  0
 30 29  1  0  0  0  0
 32 19  1  0  0  0  0
 33 21  1  0  0  0  0
 34 35  2  0  0  0  0
 36 34  1  0  0  0  0
 37 36  1  0  0  0  0
 38 41  1  0  0  0  0
 38 40  1  0  0  0  0
 39 38  1  0  0  0  0
M  END
$$$$
3QRK
 OpenBabel03172317123D

 32 35  0  0  1  0  0  0  0  0999 V2000
   16.0470   54.1280   11.4720 C   0  0  0  0  0  0  0  0  0  0  0  0
   16.6880   51.8620   14.2980 N   0  0  0  0  0  0  0  0  0  0  0  0
   14.9180   51.4510   15.6230 O   0  0  0  0  0  0  0  0  0  0  0  0
   16.4850   53.0970   12.2960 C   0  0  0  0  0  0  0  0  0  0  0  0
   16.6740   50.0740   15.7360 N   0  0  0  0  0  0  0  0  0  0  0  0
   24.3210   50.5480   19.3720 O   0  0  0  0  0  0  0  0  0  0  0  0
   15.2330   55.0900   12.0610 C   0  0  0  0  0  0  0  0  0  0  0  0
   16.0700   47.6890   18.2900 N   0  0  0  0  0  0  0  0  0  0  0  0
   23.7550   52.3250   18.2290 O   0  0  0  0  0  0  0  0  0  0  0  0
   14.9030   54.9790   13.4230 C   0  0  0  0  0  0  0  0  0  0  0  0
   16.8250   48.4660   17.3990 N   0  0  0  0  0  0  0  0  0  0  0  0
   15.3620   53.9290   14.2230 C   0  0  0  0  0  0  0  0  0  0  0  0
   23.0730   48.8000   18.1210 N   0  0  0  0  0  0  0  0  0  0  0  0
   16.1800   52.9570   13.6480 C   0  0  0  0  0  0  0  0  0  0  0  0
   16.0410   51.1350   15.2260 C   0  0  0  0  0  0  0  0  0  0  0  0
   16.0810   49.3010   16.6570 C   0  0  0  0  0  0  0  0  0  0  0  0
   14.7440   49.0780   17.0050 C   0  0  0  0  0  0  0  0  0  0  0  0
   14.8100   48.1010   18.0060 C   0  0  0  0  0  0  0  0  0  0  0  0
   13.5850   47.5650   18.7170 C   0  0  0  0  0  0  0  0  0  0  0  0
   12.7240   46.7710   17.7410 C   0  0  0  0  0  0  0  0  0  0  0  0
   12.8010   48.7330   19.3050 C   0  0  0  0  0  0  0  0  0  0  0  0
   13.9540   46.6670   19.8800 C   0  0  0  0  0  0  0  0  0  0  0  0
   18.7160   47.0490   17.3400 C   0  0  0  0  0  0  0  0  0  0  0  0
   18.1520   48.3210   17.4240 C   0  0  0  0  0  0  0  0  0  0  0  0
   19.0580   49.3760   17.5990 C   0  0  0  0  0  0  0  0  0  0  0  0
   20.0730   46.8470   17.4210 C   0  0  0  0  0  0  0  0  0  0  0  0
   20.9300   47.9150   17.5750 C   0  0  0  0  0  0  0  0  0  0  0  0
   20.4300   49.1980   17.6780 C   0  0  0  0  0  0  0  0  0  0  0  0
   22.4030   47.6160   17.6250 C   0  0  0  0  0  0  0  0  0  0  0  0
   22.7870   50.1470   17.6620 C   0  0  1  0  0  0  0  0  0  0  0  0
   21.2980   50.4320   17.8530 C   0  0  0  0  0  0  0  0  0  0  0  0
   23.6700   51.0880   18.4570 C   0  0  0  0  0  0  0  0  0  0  0  0
  1  7  2  0  0  0  0
  1  4  1  0  0  0  0
  2 15  1  0  0  0  0
  4 14  2  0  0  0  0
  5 16  1  0  0  0  0
  7 10  1  0  0  0  0
  9 32  2  0  0  0  0
 10 12  2  0  0  0  0
 11 24  1  0  0  0  0
 11  8  1  0  0  0  0
 14 12  1  0  0  0  0
 14  2  1  0  0  0  0
 15  3  2  0  0  0  0
 15  5  1  0  0  0  0
 16 17  2  0  0  0  0
 16 11  1  0  0  0  0
 17 18  1  0  0  0  0
 18  8  2  0  0  0  0
 18 19  1  0  0  0  0
 19 21  1  0  0  0  0
 19 22  1  0  0  0  0
 20 19  1  0  0  0  0
 23 26  2  0  0  0  0
 23 24  1  0  0  0  0
 24 25  2  0  0  0  0
 25 28  1  0  0  0  0
 26 27  1  0  0  0  0
 27 29  1  0  0  0  0
 27 28  2  0  0  0  0
 28 31  1  0  0  0  0
 29 13  1  0  0  0  0
 30 31  1  0  0  0  0
 30 13  1  0  0  0  0
 30 32  1  1  0  0  0
 32  6  1  0  0  0  0
M  END
$$$$
4TWP
 OpenBabel03172317123D

 28 31  0  0  0  0  0  0  0  0999 V2000
   18.1140   56.7420   15.6860 O   0  0  0  0  0  0  0  0  0  0  0  0
   18.0000   57.8130   16.2500 C   0  0  0  0  0  0  0  0  0  0  0  0
   19.1280   58.6790   16.3720 N   0  0  0  0  0  0  0  0  0  0  0  0
   20.4050   58.2750   15.8180 C   0  0  0  0  0  0  0  0  0  0  0  0
   16.6860   58.2230   16.8190 C   0  0  0  0  0  0  0  0  0  0  0  0
   16.5960   58.5640   18.1630 C   0  0  0  0  0  0  0  0  0  0  0  0
   15.3790   58.9470   18.7050 C   0  0  0  0  0  0  0  0  0  0  0  0
   14.2400   58.9900   17.9000 C   0  0  0  0  0  0  0  0  0  0  0  0
   15.5420   58.2630   16.0100 C   0  0  0  0  0  0  0  0  0  0  0  0
   14.3300   58.6450   16.5510 C   0  0  0  0  0  0  0  0  0  0  0  0
   15.6380   57.8300   14.2780 S   0  0  0  0  0  0  0  0  0  0  0  0
   14.3050   58.6800   13.4350 C   0  0  0  0  0  0  0  0  0  0  0  0
   14.2040   60.0760   13.5360 C   0  0  0  0  0  0  0  0  0  0  0  0
   13.1570   60.7560   12.8850 C   0  0  0  0  0  0  0  0  0  0  0  0
   13.3690   57.9650   12.6950 C   0  0  0  0  0  0  0  0  0  0  0  0
   12.3000   58.6610   12.0260 C   0  0  0  0  0  0  0  0  0  0  0  0
   11.2490   58.2260   11.2370 N   0  0  0  0  0  0  0  0  0  0  0  0
   10.5030   59.3150   10.8470 N   0  0  0  0  0  0  0  0  0  0  0  0
   11.0530   60.4280   11.3660 C   0  0  0  0  0  0  0  0  0  0  0  0
   12.2030   60.0270   12.1240 C   0  0  0  0  0  0  0  0  0  0  0  0
   10.5490   61.8330   11.1840 C   0  0  0  0  0  0  0  0  0  0  0  0
   10.9820   62.8400   12.0050 C   0  0  0  0  0  0  0  0  0  0  0  0
   10.2920   64.1750   11.9550 C   0  0  0  0  0  0  0  0  0  0  0  0
   10.7590   65.1910   12.6950 N   0  0  0  0  0  0  0  0  0  0  0  0
   10.1730   66.4010   12.6810 C   0  0  0  0  0  0  0  0  0  0  0  0
    9.0600   66.6080   11.8850 C   0  0  0  0  0  0  0  0  0  0  0  0
    8.5570   65.5740   11.1100 C   0  0  0  0  0  0  0  0  0  0  0  0
    9.1810   64.3360   11.1440 C   0  0  0  0  0  0  0  0  0  0  0  0
  1  2  2  0  0  0  0
  2  3  1  0  0  0  0
  2  5  1  0  0  0  0
  4  3  1  0  0  0  0
  5  6  2  0  0  0  0
  6  7  1  0  0  0  0
  8  7  2  0  0  0  0
  9 10  2  0  0  0  0
  9  5  1  0  0  0  0
 10  8  1  0  0  0  0
 11  9  1  0  0  0  0
 12 13  1  0  0  0  0
 12 11  1  0  0  0  0
 14 13  2  0  0  0  0
 15 12  2  0  0  0  0
 16 20  2  0  0  0  0
 16 15  1  0  0  0  0
 17 16  1  0  0  0  0
 18 17  1  0  0  0  0
 18 19  2  0  0  0  0
 19 20  1  0  0  0  0
 20 14  1  0  0  0  0
 21 19  1  0  0  0  0
 21 22  2  0  0  0  0
 23 22  1  0  0  0  0
 23 24  2  0  0  0  0
 25 24  1  0  0  0  0
 26 25  2  0  0  0  0
 27 28  2  0  0  0  0
 27 26  1  0  0  0  0
 28 23  1  0  0  0  0
M  END
$$$$
4WA9
 OpenBabel03172317123D

 28 31  0  0  0  0  0  0  0  0999 V2000
   17.8440   55.2820   15.0580 O   0  0  0  0  0  0  0  0  0  0  0  0
   18.0600   56.2980   15.7080 C   0  0  0  0  0  0  0  0  0  0  0  0
   19.4100   56.7430   15.8580 N   0  0  0  0  0  0  0  0  0  0  0  0
   20.4820   55.9900   15.2260 C   0  0  0  0  0  0  0  0  0  0  0  0
   16.9290   57.0280   16.3670 C   0  0  0  0  0  0  0  0  0  0  0  0
   16.9410   57.2550   17.7420 C   0  0  0  0  0  0  0  0  0  0  0  0
   15.8810   57.9130   18.3640 C   0  0  0  0  0  0  0  0  0  0  0  0
   14.7850   58.3550   17.6160 C   0  0  0  0  0  0  0  0  0  0  0  0
   15.8260   57.4600   15.6180 C   0  0  0  0  0  0  0  0  0  0  0  0
   14.7690   58.1220   16.2330 C   0  0  0  0  0  0  0  0  0  0  0  0
   15.8170   57.1650   13.8530 S   0  0  0  0  0  0  0  0  0  0  0  0
   14.5250   58.2050   13.1670 C   0  0  0  0  0  0  0  0  0  0  0  0
   14.5120   59.5940   13.4050 C   0  0  0  0  0  0  0  0  0  0  0  0
   13.4820   60.4080   12.8630 C   0  0  0  0  0  0  0  0  0  0  0  0
   13.5370   57.6000   12.3950 C   0  0  0  0  0  0  0  0  0  0  0  0
   12.4970   58.4230   11.8380 C   0  0  0  0  0  0  0  0  0  0  0  0
   11.3990   58.0920   11.0660 N   0  0  0  0  0  0  0  0  0  0  0  0
   10.6990   59.2410   10.7890 N   0  0  0  0  0  0  0  0  0  0  0  0
   11.3050   60.2920   11.3780 C   0  0  0  0  0  0  0  0  0  0  0  0
   12.4640   59.7870   12.0690 C   0  0  0  0  0  0  0  0  0  0  0  0
   10.7910   61.7020   11.2990 C   0  0  0  0  0  0  0  0  0  0  0  0
   11.4280   62.8180   11.7850 C   0  0  0  0  0  0  0  0  0  0  0  0
   10.7010   64.1280   11.6480 C   0  0  0  0  0  0  0  0  0  0  0  0
    9.4910   64.1410   11.0550 N   0  0  0  0  0  0  0  0  0  0  0  0
    8.7850   65.2820   10.8890 C   0  0  0  0  0  0  0  0  0  0  0  0
    9.3200   66.4840   11.3320 C   0  0  0  0  0  0  0  0  0  0  0  0
   10.5670   66.5020   11.9400 C   0  0  0  0  0  0  0  0  0  0  0  0
   11.2710   65.3070   12.1080 C   0  0  0  0  0  0  0  0  0  0  0  0
  1  2  2  0  0  0  0
  2  3  1  0  0  0  0
  2  5  1  0  0  0  0
  4  3  1  0  0  0  0
  5  6  2  0  0  0  0
  6  7  1  0  0  0  0
  8  7  2  0  0  0  0
  9 10  2  0  0  0  0
  9  5  1  0  0  0  0
 10  8  1  0  0  0  0
 11  9  1  0  0  0  0
 12 13  1  0  0  0  0
 12 11  1  0  0  0  0
 14 13  2  0  0  0  0
 15 12  2  0  0  0  0
 16 20  2  0  0  0  0
 16 15  1  0  0  0  0
 17 16  1  0  0  0  0
 18 17  1  0  0  0  0
 18 19  2  0  0  0  0
 19 20  1  0  0  0  0
 20 14  1  0  0  0  0
 21 19  1  0  0  0  0
 21 22  2  0  0  0  0
 23 22  1  0  0  0  0
 23 28  2  0  0  0  0
 24 23  1  0  0  0  0
 25 24  2  0  0  0  0
 25 26  1  0  0  0  0
 26 27  2  0  0  0  0
 27 28  1  0  0  0  0
M  END
$$$$
4XLI
 OpenBabel03172317123D

 32 35  0  0  0  0  0  0  0  0999 V2000
   11.4190   58.1170   11.2210 C   0  0  0  0  0  0  0  0  0  0  0  0
   12.5950   58.5290   11.9110 C   0  0  0  0  0  0  0  0  0  0  0  0
   13.8190   57.7870   12.3970 C   0  0  0  0  0  0  0  0  0  0  0  0
    7.8920   68.3850   11.9170 N   0  0  0  0  0  0  0  0  0  0  0  0
   17.0310   54.1030   13.2660 C   0  0  0  0  0  0  0  0  0  0  0  0
   15.9300   54.2310   14.1110 C   0  0  0  0  0  0  0  0  0  0  0  0
   14.8020   54.9600   13.7220 C   0  0  0  0  0  0  0  0  0  0  0  0
   13.6420   54.9780   14.6220 C   0  0  0  0  0  0  0  0  0  0  0  0
   10.6480   62.5500   11.9260 C   0  0  0  0  0  0  0  0  0  0  0  0
    9.7940   63.6330   11.7230 C   0  0  0  0  0  0  0  0  0  0  0  0
   10.1850   64.8880   12.1800 C   0  0  0  0  0  0  0  0  0  0  0  0
   12.1650   63.9420   13.0420 C   0  0  0  0  0  0  0  0  0  0  0  0
   13.4300   64.1280   13.7790 C   0  0  0  0  0  0  0  0  0  0  0  0
   10.1250   67.3200   11.7680 C   0  0  0  0  0  0  0  0  0  0  0  0
    8.3110   66.0050   11.0220 C   0  0  0  0  0  0  0  0  0  0  0  0
    7.0520   68.8730   13.0250 C   0  0  0  0  0  0  0  0  0  0  0  0
    5.6340   69.1460   12.5550 C   0  0  0  0  0  0  0  0  0  0  0  0
   10.2630   61.3810   11.4210 N   0  0  0  0  0  0  0  0  0  0  0  0
   11.0020   60.2630   11.5090 C   0  0  0  0  0  0  0  0  0  0  0  0
   10.5280   59.1360   10.9780 N   0  0  0  0  0  0  0  0  0  0  0  0
   12.5440   60.2070   12.2600 S   0  0  0  0  0  0  0  0  0  0  0  0
   13.8400   56.5080   12.0000 N   0  0  0  0  0  0  0  0  0  0  0  0
   14.7660   55.6100   12.3650 C   0  0  0  0  0  0  0  0  0  0  0  0
   16.0050   55.5030   11.5610 C   0  0  0  0  0  0  0  0  0  0  0  0
   17.0880   54.7600   12.0330 C   0  0  0  0  0  0  0  0  0  0  0  0
   14.6130   58.3320   13.1210 O   0  0  0  0  0  0  0  0  0  0  0  0
   11.3520   65.0100   12.8590 N   0  0  0  0  0  0  0  0  0  0  0  0
   11.8340   62.6960   12.5870 N   0  0  0  0  0  0  0  0  0  0  0  0
    9.3920   66.0490   12.0110 N   0  0  0  0  0  0  0  0  0  0  0  0
    9.2600   68.3090   12.5050 C   0  0  0  0  0  0  0  0  0  0  0  0
    7.3150   67.1310   11.3530 C   0  0  0  0  0  0  0  0  0  0  0  0
    4.7920   68.2900   13.3530 O   0  0  0  0  0  0  0  0  0  0  0  0
  1  2  2  0  0  0  0
  2 21  1  0  0  0  0
  2  3  1  0  0  0  0
  3 26  2  0  0  0  0
  4 30  1  0  0  0  0
  4 16  1  0  0  0  0
  5  6  2  0  0  0  0
  7  6  1  0  0  0  0
  7  8  1  0  0  0  0
  9 28  1  0  0  0  0
 10  9  2  0  0  0  0
 10 11  1  0  0  0  0
 11 27  2  0  0  0  0
 12 13  1  0  0  0  0
 14 29  1  0  0  0  0
 14 30  1  0  0  0  0
 15 31  1  0  0  0  0
 15 29  1  0  0  0  0
 17 16  1  0  0  0  0
 17 32  1  0  0  0  0
 18 19  1  0  0  0  0
 18  9  1  0  0  0  0
 19 21  1  0  0  0  0
 20  1  1  0  0  0  0
 20 19  2  0  0  0  0
 22 23  1  0  0  0  0
 22  3  1  0  0  0  0
 23  7  2  0  0  0  0
 24 25  2  0  0  0  0
 24 23  1  0  0  0  0
 25  5  1  0  0  0  0
 27 12  1  0  0  0  0
 28 12  2  0  0  0  0
 29 11  1  0  0  0  0
 31  4  1  0  0  0  0
M  END
$$$$
5HU9
 OpenBabel03172317123D

 86 94  0  0  0  0  0  0  0  0999 V2000
   16.1440   47.3620   20.8180 C   0  0  0  0  0  0  0  0  0  0  0  0
   17.4200   47.0480   21.5770 C   0  0  0  0  0  0  0  0  0  0  0  0
   17.2910   45.7890   22.2800 N   0  0  0  0  0  0  0  0  0  0  0  0
   18.5120   45.4940   23.0280 C   0  0  0  0  0  0  0  0  0  0  0  0
   16.9320   44.7340   21.3760 C   0  0  0  0  0  0  0  0  0  0  0  0
   15.6480   45.0460   20.6790 C   0  0  0  0  0  0  0  0  0  0  0  0
   15.7280   46.3050   19.9720 N   0  0  0  0  0  0  0  0  0  0  0  0
   14.5390   46.5480   19.1510 C   0  0  0  0  0  0  0  0  0  0  0  0
   14.6170   47.6520   18.2950 C   0  0  0  0  0  0  0  0  0  0  0  0
   13.5420   48.4990   18.0810 C   0  0  0  0  0  0  0  0  0  0  0  0
   12.2980   48.2330   18.7340 C   0  0  0  0  0  0  0  0  0  0  0  0
   11.3690   49.0360   18.2290 F   0  0  0  0  0  0  0  0  0  0  0  0
   12.4130   48.4540   20.0390 F   0  0  0  0  0  0  0  0  0  0  0  0
   11.9490   46.9660   18.5280 F   0  0  0  0  0  0  0  0  0  0  0  0
   13.6910   49.5960   17.2480 C   0  0  0  0  0  0  0  0  0  0  0  0
   15.7930   47.9420   17.6270 C   0  0  0  0  0  0  0  0  0  0  0  0
   15.9140   49.0440   16.7990 C   0  0  0  0  0  0  0  0  0  0  0  0
   14.8760   49.9140   16.5690 C   0  0  0  0  0  0  0  0  0  0  0  0
   14.9980   51.0420   15.7190 C   0  0  0  0  0  0  0  0  0  0  0  0
   14.2430   51.9610   15.8180 O   0  0  0  0  0  0  0  0  0  0  0  0
   16.0580   51.1230   14.8970 N   0  0  0  0  0  0  0  0  0  0  0  0
   16.1980   52.1070   13.9920 C   0  0  0  0  0  0  0  0  0  0  0  0
   15.7520   53.4210   14.0660 C   0  0  0  0  0  0  0  0  0  0  0  0
   16.8070   51.7600   12.8080 C   0  0  0  0  0  0  0  0  0  0  0  0
   16.9800   52.6720   11.8020 C   0  0  0  0  0  0  0  0  0  0  0  0
   16.5600   53.9520   11.8990 C   0  0  0  0  0  0  0  0  0  0  0  0
   16.7230   54.8310   10.8860 C   0  0  0  0  0  0  0  0  0  0  0  0
   15.9440   54.3440   13.0430 C   0  0  0  0  0  0  0  0  0  0  0  0
   15.5990   55.6170   13.0310 O   0  0  0  0  0  0  0  0  0  0  0  0
   14.6980   56.0990   14.0070 C   0  0  0  0  0  0  0  0  0  0  0  0
   13.2930   55.6570   13.7550 C   0  0  0  0  0  0  0  0  0  0  0  0
   12.6860   56.2840   12.5240 C   0  0  0  0  0  0  0  0  0  0  0  0
   14.7380   57.5500   14.0740 C   0  0  0  0  0  0  0  0  0  0  0  0
   14.1170   58.1910   12.8640 C   0  0  0  0  0  0  0  0  0  0  0  0
   12.8040   57.6920   12.5390 N   0  0  0  0  0  0  0  0  0  0  0  0
   11.7650   58.4890   12.2480 C   0  0  0  0  0  0  0  0  0  0  0  0
   10.7070   58.0240   11.9180 O   0  0  0  0  0  0  0  0  0  0  0  0
   11.8310   59.8710   12.4030 C   0  0  0  0  0  0  0  0  0  0  0  0
   12.2760   60.4310   13.5720 C   0  0  0  0  0  0  0  0  0  0  0  0
   12.3450   61.7540   13.8180 C   0  0  0  0  0  0  0  0  0  0  0  0
   11.9250   62.6320   12.8790 C   0  0  0  0  0  0  0  0  0  0  0  0
   11.4340   62.0920   11.7150 N   0  0  0  0  0  0  0  0  0  0  0  0
   11.3700   60.7590   11.4810 C   0  0  0  0  0  0  0  0  0  0  0  0
   26.7290   50.7850   43.7680 C   0  0  0  0  0  0  0  0  0  0  0  0
   27.4980   49.5850   43.3210 C   0  0  0  0  0  0  0  0  0  0  0  0
   27.1840   48.3840   44.1020 N   0  0  0  0  0  0  0  0  0  0  0  0
   27.8370   47.1690   43.6020 C   0  0  0  0  0  0  0  0  0  0  0  0
   25.7630   48.1540   44.1530 C   0  0  0  0  0  0  0  0  0  0  0  0
   25.0710   49.3440   44.6930 C   0  0  0  0  0  0  0  0  0  0  0  0
   25.3130   50.5060   43.8480 N   0  0  0  0  0  0  0  0  0  0  0  0
   24.4980   51.6510   44.1490 C   0  0  0  0  0  0  0  0  0  0  0  0
   24.4840   52.6730   43.2280 C   0  0  0  0  0  0  0  0  0  0  0  0
   24.5870   53.9550   43.6690 C   0  0  0  0  0  0  0  0  0  0  0  0
   24.7420   54.2300   45.0560 C   0  0  0  0  0  0  0  0  0  0  0  0
   24.5120   55.5200   45.2750 F   0  0  0  0  0  0  0  0  0  0  0  0
   25.9790   53.9290   45.4380 F   0  0  0  0  0  0  0  0  0  0  0  0
   23.8740   53.5000   45.7480 F   0  0  0  0  0  0  0  0  0  0  0  0
   24.5590   54.9970   42.7410 C   0  0  0  0  0  0  0  0  0  0  0  0
   24.3280   52.4100   41.8880 C   0  0  0  0  0  0  0  0  0  0  0  0
   24.3240   53.4920   41.0000 C   0  0  0  0  0  0  0  0  0  0  0  0
   24.4230   54.7850   41.3900 C   0  0  0  0  0  0  0  0  0  0  0  0
   24.4240   55.8700   40.4880 C   0  0  0  0  0  0  0  0  0  0  0  0
   24.0860   56.9450   40.8850 O   0  0  0  0  0  0  0  0  0  0  0  0
   24.8660   55.6010   39.2340 N   0  0  0  0  0  0  0  0  0  0  0  0
   25.0330   56.5150   38.2670 C   0  0  0  0  0  0  0  0  0  0  0  0
   25.7730   56.1770   37.1450 C   0  0  0  0  0  0  0  0  0  0  0  0
   24.5750   57.8050   38.3370 C   0  0  0  0  0  0  0  0  0  0  0  0
   24.8420   58.6980   37.3170 C   0  0  0  0  0  0  0  0  0  0  0  0
   25.5630   58.3290   36.2080 C   0  0  0  0  0  0  0  0  0  0  0  0
   25.7840   59.2590   35.1830 C   0  0  0  0  0  0  0  0  0  0  0  0
   26.0370   57.0680   36.1190 C   0  0  0  0  0  0  0  0  0  0  0  0
   26.7280   56.7540   35.0230 O   0  0  0  0  0  0  0  0  0  0  0  0
   27.3630   55.5480   34.9390 C   0  0  0  0  0  0  0  0  0  0  0  0
   28.5700   55.6230   33.9550 C   0  0  0  0  0  0  0  0  0  0  0  0
   29.2060   54.2760   33.7010 C   0  0  0  0  0  0  0  0  0  0  0  0
   26.4210   54.5340   34.3900 C   0  0  0  0  0  0  0  0  0  0  0  0
   27.0970   53.2380   34.1640 C   0  0  0  0  0  0  0  0  0  0  0  0
   28.2100   53.3500   33.2270 N   0  0  0  0  0  0  0  0  0  0  0  0
   28.1870   52.8400   32.0010 C   0  0  0  0  0  0  0  0  0  0  0  0
   27.2910   52.1680   31.5850 O   0  0  0  0  0  0  0  0  0  0  0  0
   29.2360   52.9800   31.1180 C   0  0  0  0  0  0  0  0  0  0  0  0
   30.4810   52.5210   31.4250 C   0  0  0  0  0  0  0  0  0  0  0  0
   31.5090   52.6030   30.5080 C   0  0  0  0  0  0  0  0  0  0  0  0
   31.2840   53.1450   29.2710 C   0  0  0  0  0  0  0  0  0  0  0  0
   30.0160   53.6010   28.9500 N   0  0  0  0  0  0  0  0  0  0  0  0
   29.0000   53.4870   29.8730 C   0  0  0  0  0  0  0  0  0  0  0  0
  1  2  1  0  0  0  0
  2  3  1  0  0  0  0
  3  4  1  0  0  0  0
  5  3  1  0  0  0  0
  6  5  1  0  0  0  0
  7  6  1  0  0  0  0
  7  1  1  0  0  0  0
  8  7  1  0  0  0  0
  9  8  1  0  0  0  0
 10  9  1  0  0  0  0
 10 11  1  0  0  0  0
 11 13  1  0  0  0  0
 12 11  1  0  0  0  0
 14 11  1  0  0  0  0
 15 10  2  0  0  0  0
 16  9  2  0  0  0  0
 17 16  1  0  0  0  0
 18 17  2  0  0  0  0
 18 15  1  0  0  0  0
 19 20  2  0  0  0  0
 19 18  1  0  0  0  0
 21 19  1  0  0  0  0
 22 23  1  0  0  0  0
 22 21  1  0  0  0  0
 24 22  2  0  0  0  0
 25 26  2  0  0  0  0
 25 24  1  0  0  0  0
 26 28  1  0  0  0  0
 27 26  1  0  0  0  0
 28 23  2  0  0  0  0
 29 28  1  0  0  0  0
 29 30  1  0  0  0  0
 30 33  1  0  0  0  0
 31 30  1  0  0  0  0
 32 35  1  0  0  0  0
 32 31  1  0  0  0  0
 34 33  1  0  0  0  0
 35 34  1  0  0  0  0
 36 38  1  0  0  0  0
 36 35  1  0  0  0  0
 37 36  2  0  0  0  0
 38 39  2  0  0  0  0
 39 40  1  0  0  0  0
 41 40  2  0  0  0  0
 42 41  1  0  0  0  0
 43 42  2  0  0  0  0
 43 38  1  0  0  0  0
 44 50  1  0  0  0  0
 45 44  1  0  0  0  0
 45 46  1  0  0  0  0
 46 48  1  0  0  0  0
 47 46  1  0  0  0  0
 48 49  1  0  0  0  0
 50 51  1  0  0  0  0
 50 49  1  0  0  0  0
 52 53  1  0  0  0  0
 52 51  1  0  0  0  0
 53 54  1  0  0  0  0
 54 55  1  0  0  0  0
 54 56  1  0  0  0  0
 54 57  1  0  0  0  0
 58 53  2  0  0  0  0
 59 52  2  0  0  0  0
 60 61  2  0  0  0  0
 60 59  1  0  0  0  0
 61 58  1  0  0  0  0
 62 63  2  0  0  0  0
 62 61  1  0  0  0  0
 64 62  1  0  0  0  0
 65 67  1  0  0  0  0
 65 64  1  0  0  0  0
 66 65  2  0  0  0  0
 68 67  2  0  0  0  0
 69 68  1  0  0  0  0
 70 69  1  0  0  0  0
 71 69  2  0  0  0  0
 71 66  1  0  0  0  0
 72 71  1  0  0  0  0
 73 72  1  0  0  0  0
 74 73  1  0  0  0  0
 75 74  1  0  0  0  0
 76 73  1  0  0  0  0
 77 76  1  0  0  0  0
 78 75  1  0  0  0  0
 78 77  1  0  0  0  0
 79 78  1  0  0  0  0
 80 79  2  0  0  0  0
 81 82  1  0  0  0  0
 81 79  1  0  0  0  0
 83 82  2  0  0  0  0
 84 83  1  0  0  0  0
 85 84  2  0  0  0  0
 85 86  1  0  0  0  0
 86 81  2  0  0  0  0
M  END
$$$$
6NPE
 OpenBabel03172317123D

 17 18  0  0  1  0  0  0  0  0999 V2000
   -5.4980   62.6160   31.1350 C   0  0  0  0  0  0  0  0  0  0  0  0
   -3.5380   64.1270   31.7950 C   0  0  0  0  0  0  0  0  0  0  0  0
   -3.2040   66.4960   32.1730 C   0  0  0  0  0  0  0  0  0  0  0  0
   -2.0790   67.4420   32.4620 C   0  0  0  0  0  0  0  0  0  0  0  0
   -2.2330   68.6270   31.6210 C   0  0  0  0  0  0  0  0  0  0  0  0
   -3.0690   58.1370   30.2470 C   0  0  0  0  0  0  0  0  0  0  0  0
   -4.3900   58.5160   30.1330 C   0  0  0  0  0  0  0  0  0  0  0  0
   -4.7540   59.8150   30.4110 C   0  0  0  0  0  0  0  0  0  0  0  0
   -3.7720   60.6970   30.8000 C   0  0  0  0  0  0  0  0  0  0  0  0
   -2.4550   60.3110   30.9090 C   0  0  0  0  0  0  0  0  0  0  0  0
   -2.0890   59.0200   30.6330 C   0  0  0  0  0  0  0  0  0  0  0  0
   -4.0810   62.1020   31.1080 C   0  0  2  0  0  0  0  0  0  0  0  0
   -2.8010   65.1910   32.2710 N   0  0  0  0  0  0  0  0  0  0  0  0
   -2.3640   69.5620   30.9440 N   0  0  0  0  0  0  0  0  0  0  0  0
   -3.0240   62.9540   31.6330 N   0  0  0  0  0  0  0  0  0  0  0  0
   -4.3310   66.8590   31.8740 O   0  0  0  0  0  0  0  0  0  0  0  0
   -5.2250   64.3760   31.3970 S   0  0  0  0  0  0  0  0  0  0  0  0
  1 17  1  0  0  0  0
  2 13  1  0  0  0  0
  3 13  1  0  0  0  0
  3  4  1  0  0  0  0
  5  4  1  0  0  0  0
  6 11  1  0  0  0  0
  7  6  2  0  0  0  0
  7  8  1  0  0  0  0
  8  9  2  0  0  0  0
  9 10  1  0  0  0  0
 11 10  2  0  0  0  0
 12  9  1  1  0  0  0
 12  1  1  0  0  0  0
 12 15  1  0  0  0  0
 14  5  3  0  0  0  0
 15  2  2  0  0  0  0
 16  3  2  0  0  0  0
 17  2  1  0  0  0  0
M  END
$$$$
6NPU
 OpenBabel03172317123D

 15 16  0  0  1  0  0  0  0  0999 V2000
   -3.5470   64.1750   31.9690 C   0  0  2  0  0  0  0  0  0  0  0  0
   -5.2430   62.7690   31.0380 C   0  0  0  0  0  0  0  0  0  0  0  0
   -3.8340   60.7280   31.0070 C   0  0  0  0  0  0  0  0  0  0  0  0
   -3.0880   58.1930   30.2550 C   0  0  0  0  0  0  0  0  0  0  0  0
   -2.1290   59.0580   30.7530 C   0  0  0  0  0  0  0  0  0  0  0  0
   -2.5020   60.3420   31.1260 C   0  0  0  0  0  0  0  0  0  0  0  0
   -1.8570   67.7430   31.9770 C   0  0  0  0  0  0  0  0  0  0  0  0
   -4.7880   59.8720   30.5020 C   0  0  0  0  0  0  0  0  0  0  0  0
   -4.4110   58.5830   30.1230 C   0  0  0  0  0  0  0  0  0  0  0  0
   -2.9200   66.6460   32.0240 C   0  0  0  0  0  0  0  0  0  0  0  0
   -4.8110   64.2510   31.0560 C   0  0  0  0  0  0  0  0  0  0  0  0
   -2.5310   65.2670   31.8850 N   0  0  0  0  0  0  0  0  0  0  0  0
   -2.9600   63.0850   31.5800 N   0  0  0  0  0  0  0  0  0  0  0  0
   -4.1690   62.0580   31.4020 N   0  0  0  0  0  0  0  0  0  0  0  0
   -4.0710   66.8980   32.1730 O   0  0  0  0  0  0  0  0  0  0  0  0
  1 12  1  6  0  0  0
  2 11  1  0  0  0  0
  2 14  1  0  0  0  0
  3  6  1  0  0  0  0
  3 14  1  0  0  0  0
  4  5  1  0  0  0  0
  5  6  2  0  0  0  0
  7 10  1  0  0  0  0
  8  3  2  0  0  0  0
  9  4  2  0  0  0  0
  9  8  1  0  0  0  0
 10 15  2  0  0  0  0
 11  1  1  0  0  0  0
 12 10  1  0  0  0  0
 13  1  1  0  0  0  0
 14 13  1  0  0  0  0
M  END
$$$$
6NPV
 OpenBabel03172317123D

 23 25  0  0  1  0  0  0  0  0999 V2000
   -4.6530   60.3060   30.4070 C   0  0  0  0  0  0  0  0  0  0  0  0
   -2.9840   58.6150   30.1800 C   0  0  0  0  0  0  0  0  0  0  0  0
   -2.0570   59.4450   30.7750 C   0  0  0  0  0  0  0  0  0  0  0  0
   -3.4080   64.5840   31.7350 C   0  0  0  0  0  0  0  0  0  0  0  0
   -3.1830   66.8950   32.4720 C   0  0  0  0  0  0  0  0  0  0  0  0
   -5.1680   63.1830   30.9310 C   0  0  0  0  0  0  0  0  0  0  0  0
   -4.7980   64.6230   31.2710 C   0  0  2  0  0  0  0  0  0  0  0  0
   -4.8330   65.4840   30.0390 C   0  0  0  0  0  0  0  0  0  0  0  0
   -6.1720   65.4100   29.3520 C   0  0  0  0  0  0  0  0  0  0  0  0
   -4.2780   59.0460   29.9910 C   0  0  0  0  0  0  0  0  0  0  0  0
   -2.5060   69.0490   33.4040 C   0  0  0  0  0  0  0  0  0  0  0  0
   -1.0050   67.8880   31.9570 C   0  0  0  0  0  0  0  0  0  0  0  0
   -2.4360   60.7060   31.1780 C   0  0  0  0  0  0  0  0  0  0  0  0
   -1.5490   70.0310   33.5000 C   0  0  0  0  0  0  0  0  0  0  0  0
   -0.1270   68.9330   32.1290 C   0  0  0  0  0  0  0  0  0  0  0  0
   -2.2070   67.9650   32.6110 C   0  0  0  0  0  0  0  0  0  0  0  0
   -3.7350   61.1430   30.9980 C   0  0  0  0  0  0  0  0  0  0  0  0
   -0.3620   70.0130   32.8840 N   0  0  0  0  0  0  0  0  0  0  0  0
   -4.0520   62.4300   31.4640 N   0  0  0  0  0  0  0  0  0  0  0  0
   -3.0020   63.3410   31.8140 N   0  0  0  0  0  0  0  0  0  0  0  0
   -2.6720   65.6650   31.9900 N   0  0  0  0  0  0  0  0  0  0  0  0
   -4.3640   67.0200   32.7600 O   0  0  0  0  0  0  0  0  0  0  0  0
   -7.0680   66.2210   30.0900 O   0  0  0  0  0  0  0  0  0  0  0  0
  1 17  2  0  0  0  0
  2  3  1  0  0  0  0
  3 13  2  0  0  0  0
  4 20  2  0  0  0  0
  4 21  1  0  0  0  0
  5 16  1  0  0  0  0
  5 22  2  0  0  0  0
  6  7  1  0  0  0  0
  6 19  1  0  0  0  0
  7  8  1  6  0  0  0
  7  4  1  0  0  0  0
  9  8  1  0  0  0  0
  9 23  1  0  0  0  0
 10  2  2  0  0  0  0
 10  1  1  0  0  0  0
 11 14  1  0  0  0  0
 12 15  2  0  0  0  0
 12 16  1  0  0  0  0
 15 18  1  0  0  0  0
 16 11  2  0  0  0  0
 17 13  1  0  0  0  0
 17 19  1  0  0  0  0
 18 14  2  0  0  0  0
 19 20  1  0  0  0  0
 21  5  1  0  0  0  0
M  END
$$$$
