aald.pdb
 OpenBabel12012112373D

  7  6  0  0  0  0  0  0  0  0999 V2000
   -1.3080   -1.0470   -0.0000 H   0  0  0  0  0  0  0  0  0  0  0  0
   -0.8480   -0.0360    0.0000 C   0  0  0  0  0  0  0  0  0  0  0  0
   -1.5800    0.9310    0.0000 O   0  0  0  0  0  0  0  0  0  0  0  0
    0.6500    0.0230   -0.0000 C   0  0  0  0  0  0  0  0  0  0  0  0
    0.9790    1.0850   -0.0000 H   0  0  0  0  0  0  0  0  0  0  0  0
    1.0540   -0.4770    0.9060 H   0  0  0  0  0  0  0  0  0  0  0  0
    1.0540   -0.4770   -0.9060 H   0  0  0  0  0  0  0  0  0  0  0  0
  1  2  1  0  0  0  0
  2  3  2  0  0  0  0
  2  4  1  0  0  0  0
  4  5  1  0  0  0  0
  4  6  1  0  0  0  0
  7  4  1  0  0  0  0
M  END
$$$$
acem.pdb
 OpenBabel12012112373D

  9  8  0  0  0  0  0  0  0  0999 V2000
   -1.0830   -0.1270   -0.0000 C   0  0  0  0  0  0  0  0  0  0  0  0
    0.2450    0.5370    0.0000 C   0  0  0  0  0  0  0  0  0  0  0  0
    1.3380   -0.2610    0.0000 N   0  0  0  0  0  0  0  0  0  0  0  0
    2.2220    0.1970   -0.0000 H   0  0  0  0  0  0  0  0  0  0  0  0
    1.2310   -1.2490    0.0000 H   0  0  0  0  0  0  0  0  0  0  0  0
    0.3330    1.7600    0.0000 O   0  0  0  0  0  0  0  0  0  0  0  0
   -1.8760    0.6530   -0.0000 H   0  0  0  0  0  0  0  0  0  0  0  0
   -1.2040   -0.7550   -0.9070 H   0  0  0  0  0  0  0  0  0  0  0  0
   -1.2050   -0.7550    0.9070 H   0  0  0  0  0  0  0  0  0  0  0  0
  1  2  1  0  0  0  0
  1  7  1  0  0  0  0
  1  9  1  0  0  0  0
  2  3  1  0  0  0  0
  2  6  2  0  0  0  0
  3  4  1  0  0  0  0
  3  5  1  0  0  0  0
  8  1  1  0  0  0  0
M  END
$$$$
acet.pdb
 OpenBabel12012112373D

  7  6  0  0  0  0  0  0  0  0999 V2000
    0.6460    0.0030   -0.0000 C   0  0  0  0  0  0  0  0  0  0  0  0
   -0.8620    0.0030    0.0000 C   0  0  0  0  0  0  0  0  0  0  0  0
    1.0200    1.0460    0.0000 H   0  0  0  0  0  0  0  0  0  0  0  0
    1.0040   -0.5250   -0.9060 H   0  0  0  0  0  0  0  0  0  0  0  0
    1.0040   -0.5250    0.9060 H   0  0  0  0  0  0  0  0  0  0  0  0
   -1.4120    1.1310    0.0000 O   0  0  0  0  0  0  0  0  0  0  0  0
   -1.3980   -1.1330   -0.0000 O   0  0  0  0  0  0  0  0  0  0  0  0
  1  2  1  0  0  0  0
  1  3  1  0  0  0  0
  1  5  1  0  0  0  0
  2  6  2  0  0  0  0
  2  7  1  0  0  0  0
  4  1  1  0  0  0  0
M  END
$$$$
acn.pdb
 OpenBabel12012112373D

  6  5  0  0  0  0  0  0  0  0999 V2000
    0.4940    0.0000    0.0000 C   0  0  0  0  0  0  0  0  0  0  0  0
    0.8760    0.0120   -1.0420 H   0  0  0  0  0  0  0  0  0  0  0  0
    0.8760   -0.9080    0.5100 H   0  0  0  0  0  0  0  0  0  0  0  0
    0.8760    0.8960    0.5310 H   0  0  0  0  0  0  0  0  0  0  0  0
   -0.9720    0.0000   -0.0000 C   0  0  0  0  0  0  0  0  0  0  0  0
   -2.1500   -0.0000    0.0000 N   0  0  0  0  0  0  0  0  0  0  0  0
  1  5  1  0  0  0  0
  1  3  1  0  0  0  0
  1  4  1  0  0  0  0
  2  1  1  0  0  0  0
  5  6  3  0  0  0  0
M  END
$$$$
aco.pdb
 OpenBabel12012112373D

 10  9  0  0  0  0  0  0  0  0999 V2000
    0.0000   -1.8440    0.0000 O   0  0  0  0  0  0  0  0  0  0  0  0
   -0.0000   -0.6190    0.0010 C   0  0  0  0  0  0  0  0  0  0  0  0
   -1.2690    0.1650   -0.0000 C   0  0  0  0  0  0  0  0  0  0  0  0
    1.2680    0.1650    0.0000 C   0  0  0  0  0  0  0  0  0  0  0  0
   -2.1270   -0.5380    0.0070 H   0  0  0  0  0  0  0  0  0  0  0  0
   -1.3140    0.8080    0.9030 H   0  0  0  0  0  0  0  0  0  0  0  0
   -1.3210    0.7960   -0.9110 H   0  0  0  0  0  0  0  0  0  0  0  0
    2.1270   -0.5370    0.0500 H   0  0  0  0  0  0  0  0  0  0  0  0
    1.3400    0.7640   -0.9310 H   0  0  0  0  0  0  0  0  0  0  0  0
    1.2960    0.8390    0.8810 H   0  0  0  0  0  0  0  0  0  0  0  0
  1  2  2  0  0  0  0
  3  2  1  0  0  0  0
  3  5  1  0  0  0  0
  3  6  1  0  0  0  0
  4  2  1  0  0  0  0
  4  8  1  0  0  0  0
  4 10  1  0  0  0  0
  7  3  1  0  0  0  0
  9  4  1  0  0  0  0
M  END
$$$$
bald.pdb
 OpenBabel12012112373D

 14 14  0  0  0  0  0  0  0  0999 V2000
   -2.8320   -1.0220   -0.0000 H   0  0  0  0  0  0  0  0  0  0  0  0
   -2.3650   -0.0150   -0.0000 C   0  0  0  0  0  0  0  0  0  0  0  0
   -3.1010    0.9530   -0.0000 O   0  0  0  0  0  0  0  0  0  0  0  0
   -0.8780    0.0000    0.0000 C   0  0  0  0  0  0  0  0  0  0  0  0
   -0.1780    1.2170    0.0000 C   0  0  0  0  0  0  0  0  0  0  0  0
   -0.7230    2.1510    0.0000 H   0  0  0  0  0  0  0  0  0  0  0  0
    1.2240    1.2240    0.0000 C   0  0  0  0  0  0  0  0  0  0  0  0
    1.7600    2.1630   -0.0000 H   0  0  0  0  0  0  0  0  0  0  0  0
    1.9290    0.0130    0.0000 C   0  0  0  0  0  0  0  0  0  0  0  0
    3.0100    0.0190    0.0000 H   0  0  0  0  0  0  0  0  0  0  0  0
   -0.1670   -1.2110    0.0000 C   0  0  0  0  0  0  0  0  0  0  0  0
   -0.6970   -2.1520    0.0000 H   0  0  0  0  0  0  0  0  0  0  0  0
    1.2350   -1.2040    0.0000 C   0  0  0  0  0  0  0  0  0  0  0  0
    1.7820   -2.1360   -0.0000 H   0  0  0  0  0  0  0  0  0  0  0  0
  1  2  1  0  0  0  0
  2  3  2  0  0  0  0
  2  4  1  0  0  0  0
  4  5  2  0  0  0  0
  4 11  1  0  0  0  0
  5  6  1  0  0  0  0
  5  7  1  0  0  0  0
  7  8  1  0  0  0  0
  7  9  2  0  0  0  0
  9 10  1  0  0  0  0
  9 13  1  0  0  0  0
 11 12  1  0  0  0  0
 11 13  2  0  0  0  0
 13 14  1  0  0  0  0
M  END
$$$$
benz.pdb
 OpenBabel12012112373D

 12 12  0  0  0  0  0  0  0  0999 V2000
   -1.3950    0.1390   -0.0000 C   0  0  0  0  0  0  0  0  0  0  0  0
   -2.4700    0.2460   -0.0000 H   0  0  0  0  0  0  0  0  0  0  0  0
   -0.8180   -1.1380   -0.0000 C   0  0  0  0  0  0  0  0  0  0  0  0
   -1.4480   -2.0160    0.0000 H   0  0  0  0  0  0  0  0  0  0  0  0
   -0.5770    1.2770   -0.0000 C   0  0  0  0  0  0  0  0  0  0  0  0
   -1.0220    2.2620    0.0000 H   0  0  0  0  0  0  0  0  0  0  0  0
    0.5770   -1.2770   -0.0000 C   0  0  0  0  0  0  0  0  0  0  0  0
    1.0220   -2.2620    0.0000 H   0  0  0  0  0  0  0  0  0  0  0  0
    0.8180    1.1380   -0.0000 C   0  0  0  0  0  0  0  0  0  0  0  0
    1.4480    2.0160    0.0000 H   0  0  0  0  0  0  0  0  0  0  0  0
    1.3950   -0.1390   -0.0000 C   0  0  0  0  0  0  0  0  0  0  0  0
    2.4700   -0.2460   -0.0000 H   0  0  0  0  0  0  0  0  0  0  0  0
  1  2  1  0  0  0  0
  1  3  2  0  0  0  0
  1  5  1  0  0  0  0
  3  4  1  0  0  0  0
  3  7  1  0  0  0  0
  5  6  1  0  0  0  0
  5  9  2  0  0  0  0
  7  8  1  0  0  0  0
  7 11  2  0  0  0  0
  9 10  1  0  0  0  0
  9 11  1  0  0  0  0
 11 12  1  0  0  0  0
M  END
$$$$
chxe.pdb
 OpenBabel12012112373D

 16 16  0  0  0  0  0  0  0  0999 V2000
   -1.5020    0.1580    0.0990 C   0  0  0  0  0  0  0  0  0  0  0  0
   -2.3940    0.2420   -0.5600 H   0  0  0  0  0  0  0  0  0  0  0  0
   -1.8700    0.0070    1.1380 H   0  0  0  0  0  0  0  0  0  0  0  0
   -0.6990   -1.0910   -0.3180 C   0  0  0  0  0  0  0  0  0  0  0  0
   -0.5780   -1.0940   -1.4250 H   0  0  0  0  0  0  0  0  0  0  0  0
   -1.2560   -2.0100   -0.0330 H   0  0  0  0  0  0  0  0  0  0  0  0
    0.6990   -1.0910    0.3180 C   0  0  0  0  0  0  0  0  0  0  0  0
    1.2560   -2.0100    0.0330 H   0  0  0  0  0  0  0  0  0  0  0  0
    0.5780   -1.0940    1.4250 H   0  0  0  0  0  0  0  0  0  0  0  0
    1.5020    0.1580   -0.0990 C   0  0  0  0  0  0  0  0  0  0  0  0
    1.8700    0.0070   -1.1380 H   0  0  0  0  0  0  0  0  0  0  0  0
    2.3940    0.2420    0.5600 H   0  0  0  0  0  0  0  0  0  0  0  0
    0.6710    1.4170   -0.0450 C   0  0  0  0  0  0  0  0  0  0  0  0
    1.2180    2.3700   -0.1010 H   0  0  0  0  0  0  0  0  0  0  0  0
   -0.6710    1.4170    0.0450 C   0  0  0  0  0  0  0  0  0  0  0  0
   -1.2180    2.3700    0.1010 H   0  0  0  0  0  0  0  0  0  0  0  0
  1  3  1  0  0  0  0
  2  1  1  0  0  0  0
  4  6  1  0  0  0  0
  4  1  1  0  0  0  0
  4  7  1  0  0  0  0
  5  4  1  0  0  0  0
  7  9  1  0  0  0  0
  8  7  1  0  0  0  0
 10 13  1  0  0  0  0
 10  7  1  0  0  0  0
 10 12  1  0  0  0  0
 11 10  1  0  0  0  0
 13 15  2  0  0  0  0
 14 13  1  0  0  0  0
 15  1  1  0  0  0  0
 15 16  1  0  0  0  0
M  END
$$$$
dmee.pdb
 OpenBabel12012112373D

  9  8  0  0  0  0  0  0  0  0999 V2000
   -1.1680   -0.0000   -0.0500 C   0  0  0  0  0  0  0  0  0  0  0  0
   -2.0650   -0.0000   -0.7060 H   0  0  0  0  0  0  0  0  0  0  0  0
   -1.1940   -0.9070    0.5910 H   0  0  0  0  0  0  0  0  0  0  0  0
   -1.1940    0.9070    0.5910 H   0  0  0  0  0  0  0  0  0  0  0  0
    0.0000   -0.0000   -0.8540 O   0  0  0  0  0  0  0  0  0  0  0  0
    1.1680   -0.0000   -0.0500 C   0  0  0  0  0  0  0  0  0  0  0  0
    2.0650   -0.0000   -0.7060 H   0  0  0  0  0  0  0  0  0  0  0  0
    1.1940    0.9070    0.5910 H   0  0  0  0  0  0  0  0  0  0  0  0
    1.1940   -0.9070    0.5910 H   0  0  0  0  0  0  0  0  0  0  0  0
  1  3  1  0  0  0  0
  1  4  1  0  0  0  0
  2  1  1  0  0  0  0
  5  1  1  0  0  0  0
  5  6  1  0  0  0  0
  6  8  1  0  0  0  0
  6  9  1  0  0  0  0
  7  6  1  0  0  0  0
M  END
$$$$
dmf.pdb
 OpenBabel12012112373D

 12 11  0  0  0  0  0  0  0  0999 V2000
    0.8500   -2.0530    0.0000 H   0  0  0  0  0  0  0  0  0  0  0  0
   -0.1120   -1.5200    0.0000 C   0  0  0  0  0  0  0  0  0  0  0  0
   -1.1800   -2.1300    0.0000 O   0  0  0  0  0  0  0  0  0  0  0  0
   -0.0130   -0.1590    0.0000 N   0  0  0  0  0  0  0  0  0  0  0  0
   -1.1910    0.6890   -0.0000 C   0  0  0  0  0  0  0  0  0  0  0  0
   -2.1210    0.0760    0.0000 H   0  0  0  0  0  0  0  0  0  0  0  0
   -1.1450    1.3180   -0.9140 H   0  0  0  0  0  0  0  0  0  0  0  0
   -1.1450    1.3180    0.9140 H   0  0  0  0  0  0  0  0  0  0  0  0
    1.2840    0.4900    0.0000 C   0  0  0  0  0  0  0  0  0  0  0  0
    2.1000   -0.2670    0.0000 H   0  0  0  0  0  0  0  0  0  0  0  0
    1.3360    1.1200    0.9140 H   0  0  0  0  0  0  0  0  0  0  0  0
    1.3360    1.1200   -0.9140 H   0  0  0  0  0  0  0  0  0  0  0  0
  1  2  1  0  0  0  0
  2  3  2  0  0  0  0
  2  4  1  0  0  0  0
  4  5  1  0  0  0  0
  4  9  1  0  0  0  0
  5  6  1  0  0  0  0
  5  8  1  0  0  0  0
  7  5  1  0  0  0  0
  9 10  1  0  0  0  0
  9 11  1  0  0  0  0
 12  9  1  0  0  0  0
M  END
$$$$
etha.pdb
 OpenBabel12012112373D

  8  7  0  0  0  0  0  0  0  0999 V2000
   -1.1570   -0.4020   -0.9600 H   0  0  0  0  0  0  0  0  0  0  0  0
   -1.1570   -0.6300    0.8280 H   0  0  0  0  0  0  0  0  0  0  0  0
   -1.1570    1.0320    0.1320 H   0  0  0  0  0  0  0  0  0  0  0  0
   -0.7660   -0.0000    0.0000 C   0  0  0  0  0  0  0  0  0  0  0  0
    1.1570   -1.0320   -0.1310 H   0  0  0  0  0  0  0  0  0  0  0  0
    1.1570    0.6300   -0.8290 H   0  0  0  0  0  0  0  0  0  0  0  0
    1.1570    0.4030    0.9600 H   0  0  0  0  0  0  0  0  0  0  0  0
    0.7660   -0.0000    0.0000 C   0  0  0  0  0  0  0  0  0  0  0  0
  1  4  1  0  0  0  0
  4  8  1  0  0  0  0
  4  3  1  0  0  0  0
  4  2  1  0  0  0  0
  5  8  1  0  0  0  0
  6  8  1  0  0  0  0
  8  7  1  0  0  0  0
M  END
$$$$
etoh.pdb
 OpenBabel12012112373D

  9  8  0  0  0  0  0  0  0  0999 V2000
   -0.4320   -0.3370   -0.0000 C   0  0  0  0  0  0  0  0  0  0  0  0
   -1.2760    0.8050   -0.0000 O   0  0  0  0  0  0  0  0  0  0  0  0
   -2.1860    0.4960   -0.0000 H   0  0  0  0  0  0  0  0  0  0  0  0
   -0.6330   -0.9530    0.9060 H   0  0  0  0  0  0  0  0  0  0  0  0
   -0.6330   -0.9530   -0.9060 H   0  0  0  0  0  0  0  0  0  0  0  0
    1.0140    0.1410   -0.0000 C   0  0  0  0  0  0  0  0  0  0  0  0
    1.7130   -0.7210    0.0000 H   0  0  0  0  0  0  0  0  0  0  0  0
    1.2160    0.7610    0.9000 H   0  0  0  0  0  0  0  0  0  0  0  0
    1.2160    0.7610   -0.9000 H   0  0  0  0  0  0  0  0  0  0  0  0
  1  2  1  0  0  0  0
  1  6  1  0  0  0  0
  1  4  1  0  0  0  0
  2  3  1  0  0  0  0
  5  1  1  0  0  0  0
  6  7  1  0  0  0  0
  6  8  1  0  0  0  0
  9  6  1  0  0  0  0
M  END
$$$$
mam1.pdb
 OpenBabel12012112373D

  7  6  0  0  0  0  0  0  0  0999 V2000
    0.8540   -0.0000   -0.3010 N   0  0  0  0  0  0  0  0  0  0  0  0
   -0.6090    0.0000   -0.0060 C   0  0  0  0  0  0  0  0  0  0  0  0
    1.3540   -0.8110    0.0560 H   0  0  0  0  0  0  0  0  0  0  0  0
    1.3540    0.8110    0.0560 H   0  0  0  0  0  0  0  0  0  0  0  0
   -1.0820    0.8820   -0.4370 H   0  0  0  0  0  0  0  0  0  0  0  0
   -0.7890    0.0000    1.0690 H   0  0  0  0  0  0  0  0  0  0  0  0
   -1.0820   -0.8820   -0.4370 H   0  0  0  0  0  0  0  0  0  0  0  0
  1  2  1  0  0  0  0
  1  3  1  0  0  0  0
  1  4  1  0  0  0  0
  2  6  1  0  0  0  0
  5  2  1  0  0  0  0
  7  2  1  0  0  0  0
M  END
$$$$
mamm.pdb
 OpenBabel12012112373D

  8  7  0  0  0  0  0  0  0  0999 V2000
   -0.7410    0.0000    0.0000 C   0  0  0  0  0  0  0  0  0  0  0  0
    0.7460   -0.0000    0.0000 N   0  3  0  0  0  0  0  0  0  0  0  0
   -1.1120   -1.0280   -0.2060 H   0  0  0  0  0  0  0  0  0  0  0  0
   -1.1120    0.6920   -0.7870 H   0  0  0  0  0  0  0  0  0  0  0  0
   -1.1120    0.3360    0.9930 H   0  0  0  0  0  0  0  0  0  0  0  0
    1.1100   -0.6450    0.7340 H   0  0  0  0  0  0  0  0  0  0  0  0
    1.1100    0.9580    0.1920 H   0  0  0  0  0  0  0  0  0  0  0  0
    1.1100   -0.3130   -0.9250 H   0  0  0  0  0  0  0  0  0  0  0  0
  1  2  1  0  0  0  0
  1  5  1  0  0  0  0
  2  7  1  0  0  0  0
  2  6  1  0  0  0  0
  3  1  1  0  0  0  0
  4  1  1  0  0  0  0
  8  2  1  0  0  0  0
M  CHG  1   2   1
M  END
$$$$
phen.pdb
 OpenBabel12012112373D

 13 13  0  0  0  0  0  0  0  0999 V2000
   -1.6350    0.3270   -0.0000 C   0  0  0  0  0  0  0  0  0  0  0  0
   -2.6850    0.5820   -0.0000 H   0  0  0  0  0  0  0  0  0  0  0  0
   -1.2410   -1.0190    0.0000 C   0  0  0  0  0  0  0  0  0  0  0  0
   -1.9860   -1.8010    0.0000 H   0  0  0  0  0  0  0  0  0  0  0  0
   -0.6670    1.3410   -0.0000 C   0  0  0  0  0  0  0  0  0  0  0  0
   -0.9720    2.3780   -0.0000 H   0  0  0  0  0  0  0  0  0  0  0  0
    0.1220   -1.3480    0.0000 C   0  0  0  0  0  0  0  0  0  0  0  0
    0.4310   -2.3830    0.0000 H   0  0  0  0  0  0  0  0  0  0  0  0
    0.6960    1.0090   -0.0000 C   0  0  0  0  0  0  0  0  0  0  0  0
    1.4360    1.7940   -0.0000 H   0  0  0  0  0  0  0  0  0  0  0  0
    1.0880   -0.3360    0.0000 C   0  0  0  0  0  0  0  0  0  0  0  0
    2.4550   -0.6790    0.0000 O   0  0  0  0  0  0  0  0  0  0  0  0
    2.9580    0.1360   -0.0000 H   0  0  0  0  0  0  0  0  0  0  0  0
  1  2  1  0  0  0  0
  1  3  2  0  0  0  0
  1  5  1  0  0  0  0
  3  4  1  0  0  0  0
  3  7  1  0  0  0  0
  5  6  1  0  0  0  0
  5  9  2  0  0  0  0
  7  8  1  0  0  0  0
  7 11  2  0  0  0  0
  9 10  1  0  0  0  0
  9 11  1  0  0  0  0
 11 12  1  0  0  0  0
 12 13  1  0  0  0  0
M  END
$$$$
pro2.pdb
 OpenBabel12012112373D

 12 11  0  0  0  0  0  0  0  0999 V2000
   -0.0020   -0.3660    0.2880 C   0  0  0  0  0  0  0  0  0  0  0  0
   -0.2320   -1.5290   -0.4800 O   0  0  0  0  0  0  0  0  0  0  0  0
   -1.0890   -1.8610   -0.2050 H   0  0  0  0  0  0  0  0  0  0  0  0
   -0.0320   -0.6260    1.3730 H   0  0  0  0  0  0  0  0  0  0  0  0
   -1.1040    0.6400   -0.0400 C   0  0  0  0  0  0  0  0  0  0  0  0
   -2.1040    0.2360    0.2230 H   0  0  0  0  0  0  0  0  0  0  0  0
   -1.0920    0.8790   -1.1260 H   0  0  0  0  0  0  0  0  0  0  0  0
   -0.9440    1.5810    0.5260 H   0  0  0  0  0  0  0  0  0  0  0  0
    1.3870    0.1630   -0.0700 C   0  0  0  0  0  0  0  0  0  0  0  0
    2.1610   -0.6010    0.1550 H   0  0  0  0  0  0  0  0  0  0  0  0
    1.6140    1.0820    0.5080 H   0  0  0  0  0  0  0  0  0  0  0  0
    1.4370    0.4020   -1.1540 H   0  0  0  0  0  0  0  0  0  0  0  0
  1  4  1  0  0  0  0
  2  3  1  0  0  0  0
  2  1  1  0  0  0  0
  5  6  1  0  0  0  0
  5  1  1  0  0  0  0
  5  8  1  0  0  0  0
  7  5  1  0  0  0  0
  9 10  1  0  0  0  0
  9  1  1  0  0  0  0
  9 11  1  0  0  0  0
 12  9  1  0  0  0  0
M  END
$$$$
tboh.pdb
 OpenBabel12012112373D

 15 14  0  0  0  0  0  0  0  0999 V2000
    0.0170    0.0000   -0.2400 C   0  0  0  0  0  0  0  0  0  0  0  0
   -0.2190    0.0000   -1.6250 O   0  0  0  0  0  0  0  0  0  0  0  0
   -1.1730   -0.0000   -1.6990 H   0  0  0  0  0  0  0  0  0  0  0  0
   -0.6180   -1.2630    0.3330 C   0  0  0  0  0  0  0  0  0  0  0  0
   -0.1770   -2.1650   -0.1430 H   0  0  0  0  0  0  0  0  0  0  0  0
   -1.7140   -1.2690    0.1620 H   0  0  0  0  0  0  0  0  0  0  0  0
   -0.4320   -1.3180    1.4260 H   0  0  0  0  0  0  0  0  0  0  0  0
   -0.6190    1.2620    0.3330 C   0  0  0  0  0  0  0  0  0  0  0  0
   -0.1790    2.1650   -0.1420 H   0  0  0  0  0  0  0  0  0  0  0  0
   -0.4330    1.3170    1.4260 H   0  0  0  0  0  0  0  0  0  0  0  0
   -1.7150    1.2680    0.1620 H   0  0  0  0  0  0  0  0  0  0  0  0
    1.5290    0.0000   -0.0360 C   0  0  0  0  0  0  0  0  0  0  0  0
    1.9800    0.9010   -0.5030 H   0  0  0  0  0  0  0  0  0  0  0  0
    1.9810   -0.9000   -0.5030 H   0  0  0  0  0  0  0  0  0  0  0  0
    1.7720    0.0000    1.0470 H   0  0  0  0  0  0  0  0  0  0  0  0
  1 12  1  0  0  0  0
  1  4  1  0  0  0  0
  1  8  1  0  0  0  0
  2  1  1  0  0  0  0
  3  2  1  0  0  0  0
  4  7  1  0  0  0  0
  5  4  1  0  0  0  0
  6  4  1  0  0  0  0
  8 10  1  0  0  0  0
  9  8  1  0  0  0  0
 11  8  1  0  0  0  0
 12 15  1  0  0  0  0
 13 12  1  0  0  0  0
 14 12  1  0  0  0  0
M  END
$$$$
urea.pdb
 OpenBabel12012112373D

  8  7  0  0  0  0  0  0  0  0999 V2000
   -1.1050    0.2180   -0.0000 N   0  0  0  0  0  0  0  0  0  0  0  0
   -1.9620   -0.2840   -0.0000 H   0  0  0  0  0  0  0  0  0  0  0  0
   -1.0360    1.2050    0.0000 H   0  0  0  0  0  0  0  0  0  0  0  0
   -0.0000   -0.5250   -0.0000 C   0  0  0  0  0  0  0  0  0  0  0  0
   -0.0000   -1.7520   -0.0000 O   0  0  0  0  0  0  0  0  0  0  0  0
    1.1050    0.2180    0.0000 N   0  0  0  0  0  0  0  0  0  0  0  0
    1.9620   -0.2840    0.0000 H   0  0  0  0  0  0  0  0  0  0  0  0
    1.0360    1.2050   -0.0000 H   0  0  0  0  0  0  0  0  0  0  0  0
  1  2  1  0  0  0  0
  1  3  1  0  0  0  0
  1  4  1  0  0  0  0
  4  5  2  0  0  0  0
  4  6  1  0  0  0  0
  6  7  1  0  0  0  0
  6  8  1  0  0  0  0
M  END
$$$$
